$DATA1 SOURCE='HSPICE' VERSION='I-2013.12-SP1 64-BIT'
.TITLE '** generated for: hspiced'
 ion_nmos         ion_pmos         temper           alter#            
  6.148e-05       -7.937e-05        1.250e+02       1                 
