$DATA1 SOURCE='HSPICE' VERSION='I-2013.12-SP1 64-BIT'
.TITLE 'tttt'
 index            l_param@norm_1_random l_param@norm_1_random  
                  wn_param@norm_2_random wn_param@norm_2_random  
                  id_nmos          id_pmos          ion_nmos          
                  ion_pmos         temper           alter#            
 1                 4.985e-08        4.985e-08        9.001e-08        
                   9.001e-08        1.220e-04       -1.649e-04        
                   1.355e+03        9.161e+02        2.500e+01        
                  1                 
 2                 4.993e-08        4.993e-08        8.994e-08        
                   8.994e-08        1.217e-04       -1.644e-04        
                   1.352e+03        9.132e+02        2.500e+01        
                  1                 
 3                 5.001e-08        5.001e-08        9.090e-08        
                   9.090e-08        1.229e-04       -1.658e-04        
                   1.365e+03        9.212e+02        2.500e+01        
                  1                 
 4                 5.041e-08        5.041e-08        9.019e-08        
                   9.019e-08        1.207e-04       -1.626e-04        
                   1.341e+03        9.034e+02        2.500e+01        
                  1                 
 5                 4.993e-08        4.993e-08        9.045e-08        
                   9.045e-08        1.224e-04       -1.654e-04        
                   1.360e+03        9.187e+02        2.500e+01        
                  1                 
 6                 4.933e-08        4.933e-08        9.073e-08        
                   9.073e-08        1.246e-04       -1.689e-04        
                   1.385e+03        9.383e+02        2.500e+01        
                  1                 
 7                 4.986e-08        4.986e-08        8.934e-08        
                   8.934e-08        1.210e-04       -1.636e-04        
                   1.344e+03        9.089e+02        2.500e+01        
                  1                 
 8                 5.040e-08        5.040e-08        8.822e-08        
                   8.822e-08        1.179e-04       -1.589e-04        
                   1.309e+03        8.829e+02        2.500e+01        
                  1                 
 9                 5.013e-08        5.013e-08        9.002e-08        
                   9.002e-08        1.212e-04       -1.636e-04        
                   1.346e+03        9.087e+02        2.500e+01        
                  1                 
 10                5.014e-08        5.014e-08        8.857e-08        
                   8.857e-08        1.191e-04       -1.608e-04        
                   1.323e+03        8.933e+02        2.500e+01        
                  1                 
 11                5.046e-08        5.046e-08        9.047e-08        
                   9.047e-08        1.209e-04       -1.629e-04        
                   1.343e+03        9.049e+02        2.500e+01        
                  1                 
 12                4.970e-08        4.970e-08        8.861e-08        
                   8.861e-08        1.204e-04       -1.629e-04        
                   1.337e+03        9.051e+02        2.500e+01        
                  1                 
 13                5.040e-08        5.040e-08        8.930e-08        
                   8.930e-08        1.194e-04       -1.610e-04        
                   1.326e+03        8.942e+02        2.500e+01        
                  1                 
 14                4.991e-08        4.991e-08        8.951e-08        
                   8.951e-08        1.211e-04       -1.637e-04        
                   1.345e+03        9.092e+02        2.500e+01        
                  1                 
 15                4.992e-08        4.992e-08        9.086e-08        
                   9.086e-08        1.231e-04       -1.662e-04        
                   1.367e+03        9.234e+02        2.500e+01        
                  1                 
 16                5.036e-08        5.036e-08        8.947e-08        
                   8.947e-08        1.198e-04       -1.615e-04        
                   1.331e+03        8.972e+02        2.500e+01        
                  1                 
 17                5.008e-08        5.008e-08        8.787e-08        
                   8.787e-08        1.182e-04       -1.597e-04        
                   1.313e+03        8.873e+02        2.500e+01        
                  1                 
 18                4.982e-08        4.982e-08        9.025e-08        
                   9.025e-08        1.225e-04       -1.655e-04        
                   1.360e+03        9.195e+02        2.500e+01        
                  1                 
 19                5.001e-08        5.001e-08        9.123e-08        
                   9.123e-08        1.233e-04       -1.665e-04        
                   1.370e+03        9.248e+02        2.500e+01        
                  1                 
 20                5.021e-08        5.021e-08        8.962e-08        
                   8.962e-08        1.204e-04       -1.625e-04        
                   1.338e+03        9.026e+02        2.500e+01        
                  1                 
 21                5.007e-08        5.007e-08        9.065e-08        
                   9.065e-08        1.223e-04       -1.651e-04        
                   1.359e+03        9.172e+02        2.500e+01        
                  1                 
 22                5.009e-08        5.009e-08        9.119e-08        
                   9.119e-08        1.231e-04       -1.660e-04        
                   1.367e+03        9.223e+02        2.500e+01        
                  1                 
 23                5.000e-08        5.000e-08        8.883e-08        
                   8.883e-08        1.198e-04       -1.619e-04        
                   1.331e+03        8.995e+02        2.500e+01        
                  1                 
 24                5.023e-08        5.023e-08        9.092e-08        
                   9.092e-08        1.223e-04       -1.648e-04        
                   1.358e+03        9.157e+02        2.500e+01        
                  1                 
 25                4.965e-08        4.965e-08        8.996e-08        
                   8.996e-08        1.225e-04       -1.658e-04        
                   1.361e+03        9.210e+02        2.500e+01        
                  1                 
 26                5.063e-08        5.063e-08        9.031e-08        
                   9.031e-08        1.202e-04       -1.618e-04        
                   1.336e+03        8.988e+02        2.500e+01        
                  1                 
 27                5.014e-08        5.014e-08        9.061e-08        
                   9.061e-08        1.221e-04       -1.647e-04        
                   1.356e+03        9.147e+02        2.500e+01        
                  1                 
 28                5.004e-08        5.004e-08        8.930e-08        
                   8.930e-08        1.204e-04       -1.626e-04        
                   1.338e+03        9.034e+02        2.500e+01        
                  1                 
 29                5.025e-08        5.025e-08        9.108e-08        
                   9.108e-08        1.224e-04       -1.650e-04        
                   1.360e+03        9.169e+02        2.500e+01        
                  1                 
 30                4.994e-08        4.994e-08        9.036e-08        
                   9.036e-08        1.223e-04       -1.651e-04        
                   1.358e+03        9.174e+02        2.500e+01        
                  1                 
 31                5.009e-08        5.009e-08        9.058e-08        
                   9.058e-08        1.222e-04       -1.649e-04        
                   1.357e+03        9.158e+02        2.500e+01        
                  1                 
 32                5.013e-08        5.013e-08        8.974e-08        
                   8.974e-08        1.208e-04       -1.631e-04        
                   1.342e+03        9.059e+02        2.500e+01        
                  1                 
 33                5.006e-08        5.006e-08        9.060e-08        
                   9.060e-08        1.223e-04       -1.650e-04        
                   1.358e+03        9.167e+02        2.500e+01        
                  1                 
 34                4.986e-08        4.986e-08        9.029e-08        
                   9.029e-08        1.224e-04       -1.654e-04        
                   1.359e+03        9.187e+02        2.500e+01        
                  1                 
 35                5.006e-08        5.006e-08        9.170e-08        
                   9.170e-08        1.239e-04       -1.671e-04        
                   1.376e+03        9.285e+02        2.500e+01        
                  1                 
 36                5.027e-08        5.027e-08        8.972e-08        
                   8.972e-08        1.204e-04       -1.624e-04        
                   1.337e+03        9.019e+02        2.500e+01        
                  1                 
 37                5.018e-08        5.018e-08        8.824e-08        
                   8.824e-08        1.185e-04       -1.600e-04        
                   1.316e+03        8.888e+02        2.500e+01        
                  1                 
 38                5.002e-08        5.002e-08        8.970e-08        
                   8.970e-08        1.211e-04       -1.635e-04        
                   1.345e+03        9.083e+02        2.500e+01        
                  1                 
 39                5.071e-08        5.071e-08        9.108e-08        
                   9.108e-08        1.212e-04       -1.629e-04        
                   1.346e+03        9.050e+02        2.500e+01        
                  1                 
 40                5.038e-08        5.038e-08        8.931e-08        
                   8.931e-08        1.195e-04       -1.611e-04        
                   1.327e+03        8.948e+02        2.500e+01        
                  1                 
 41                4.991e-08        4.991e-08        9.073e-08        
                   9.073e-08        1.229e-04       -1.660e-04        
                   1.365e+03        9.223e+02        2.500e+01        
                  1                 
 42                5.000e-08        5.000e-08        9.015e-08        
                   9.015e-08        1.218e-04       -1.645e-04        
                   1.353e+03        9.137e+02        2.500e+01        
                  1                 
 43                5.077e-08        5.077e-08        9.061e-08        
                   9.061e-08        1.203e-04       -1.617e-04        
                   1.336e+03        8.985e+02        2.500e+01        
                  1                 
 44                4.986e-08        4.986e-08        8.950e-08        
                   8.950e-08        1.213e-04       -1.639e-04        
                   1.347e+03        9.105e+02        2.500e+01        
                  1                 
 45                5.053e-08        5.053e-08        8.840e-08        
                   8.840e-08        1.178e-04       -1.587e-04        
                   1.308e+03        8.815e+02        2.500e+01        
                  1                 
 46                4.998e-08        4.998e-08        8.894e-08        
                   8.894e-08        1.201e-04       -1.622e-04        
                   1.334e+03        9.013e+02        2.500e+01        
                  1                 
 47                4.979e-08        4.979e-08        8.994e-08        
                   8.994e-08        1.221e-04       -1.651e-04        
                   1.356e+03        9.170e+02        2.500e+01        
                  1                 
 48                4.999e-08        4.999e-08        9.014e-08        
                   9.014e-08        1.218e-04       -1.645e-04        
                   1.353e+03        9.138e+02        2.500e+01        
                  1                 
 49                5.055e-08        5.055e-08        9.095e-08        
                   9.095e-08        1.214e-04       -1.634e-04        
                   1.348e+03        9.077e+02        2.500e+01        
                  1                 
 50                4.974e-08        4.974e-08        9.049e-08        
                   9.049e-08        1.230e-04       -1.664e-04        
                   1.367e+03        9.242e+02        2.500e+01        
                  1                 
 51                5.027e-08        5.027e-08        8.938e-08        
                   8.938e-08        1.199e-04       -1.617e-04        
                   1.332e+03        8.983e+02        2.500e+01        
                  1                 
 52                5.056e-08        5.056e-08        9.063e-08        
                   9.063e-08        1.209e-04       -1.628e-04        
                   1.343e+03        9.042e+02        2.500e+01        
                  1                 
 53                5.035e-08        5.035e-08        8.992e-08        
                   8.992e-08        1.205e-04       -1.624e-04        
                   1.338e+03        9.021e+02        2.500e+01        
                  1                 
 54                5.024e-08        5.024e-08        9.003e-08        
                   9.003e-08        1.209e-04       -1.631e-04        
                   1.343e+03        9.061e+02        2.500e+01        
                  1                 
 55                4.994e-08        4.994e-08        8.906e-08        
                   8.906e-08        1.204e-04       -1.626e-04        
                   1.337e+03        9.035e+02        2.500e+01        
                  1                 
 56                4.938e-08        4.938e-08        9.149e-08        
                   9.149e-08        1.256e-04       -1.701e-04        
                   1.395e+03        9.449e+02        2.500e+01        
                  1                 
 57                4.961e-08        4.961e-08        8.930e-08        
                   8.930e-08        1.217e-04       -1.647e-04        
                   1.352e+03        9.151e+02        2.500e+01        
                  1                 
 58                4.982e-08        4.982e-08        9.088e-08        
                   9.088e-08        1.234e-04       -1.667e-04        
                   1.370e+03        9.261e+02        2.500e+01        
                  1                 
 59                4.991e-08        4.991e-08        8.908e-08        
                   8.908e-08        1.205e-04       -1.629e-04        
                   1.338e+03        9.047e+02        2.500e+01        
                  1                 
 60                4.988e-08        4.988e-08        8.870e-08        
                   8.870e-08        1.200e-04       -1.623e-04        
                   1.333e+03        9.015e+02        2.500e+01        
                  1                 
 61                4.979e-08        4.979e-08        9.051e-08        
                   9.051e-08        1.229e-04       -1.662e-04        
                   1.366e+03        9.232e+02        2.500e+01        
                  1                 
 62                4.964e-08        4.964e-08        8.990e-08        
                   8.990e-08        1.225e-04       -1.657e-04        
                   1.361e+03        9.208e+02        2.500e+01        
                  1                 
 63                5.027e-08        5.027e-08        9.053e-08        
                   9.053e-08        1.216e-04       -1.639e-04        
                   1.351e+03        9.106e+02        2.500e+01        
                  1                 
 64                5.043e-08        5.043e-08        8.973e-08        
                   8.973e-08        1.200e-04       -1.616e-04        
                   1.332e+03        8.979e+02        2.500e+01        
                  1                 
 65                4.994e-08        4.994e-08        9.085e-08        
                   9.085e-08        1.230e-04       -1.661e-04        
                   1.366e+03        9.227e+02        2.500e+01        
                  1                 
 66                4.946e-08        4.946e-08        9.073e-08        
                   9.073e-08        1.243e-04       -1.682e-04        
                   1.380e+03        9.347e+02        2.500e+01        
                  1                 
 67                4.952e-08        4.952e-08        9.023e-08        
                   9.023e-08        1.233e-04       -1.670e-04        
                   1.370e+03        9.275e+02        2.500e+01        
                  1                 
 68                4.982e-08        4.982e-08        9.203e-08        
                   9.203e-08        1.251e-04       -1.689e-04        
                   1.389e+03        9.384e+02        2.500e+01        
                  1                 
 69                4.981e-08        4.981e-08        9.182e-08        
                   9.182e-08        1.248e-04       -1.686e-04        
                   1.386e+03        9.365e+02        2.500e+01        
                  1                 
 70                5.012e-08        5.012e-08        8.947e-08        
                   8.947e-08        1.204e-04       -1.626e-04        
                   1.338e+03        9.032e+02        2.500e+01        
                  1                 
 71                4.990e-08        4.990e-08        9.040e-08        
                   9.040e-08        1.224e-04       -1.654e-04        
                   1.360e+03        9.188e+02        2.500e+01        
                  1                 
 72                5.004e-08        5.004e-08        8.919e-08        
                   8.919e-08        1.203e-04       -1.625e-04        
                   1.336e+03        9.025e+02        2.500e+01        
                  1                 
 73                4.964e-08        4.964e-08        9.155e-08        
                   9.155e-08        1.249e-04       -1.689e-04        
                   1.388e+03        9.384e+02        2.500e+01        
                  1                 
 74                4.973e-08        4.973e-08        9.110e-08        
                   9.110e-08        1.240e-04       -1.676e-04        
                   1.377e+03        9.311e+02        2.500e+01        
                  1                 
 75                5.005e-08        5.005e-08        8.902e-08        
                   8.902e-08        1.200e-04       -1.621e-04        
                   1.333e+03        9.003e+02        2.500e+01        
                  1                 
 76                5.021e-08        5.021e-08        8.999e-08        
                   8.999e-08        1.209e-04       -1.631e-04        
                   1.343e+03        9.062e+02        2.500e+01        
                  1                 
 77                5.028e-08        5.028e-08        9.040e-08        
                   9.040e-08        1.213e-04       -1.636e-04        
                   1.348e+03        9.088e+02        2.500e+01        
                  1                 
 78                5.017e-08        5.017e-08        9.012e-08        
                   9.012e-08        1.213e-04       -1.636e-04        
                   1.347e+03        9.088e+02        2.500e+01        
                  1                 
 79                5.027e-08        5.027e-08        8.970e-08        
                   8.970e-08        1.204e-04       -1.623e-04        
                   1.337e+03        9.019e+02        2.500e+01        
                  1                 
 80                5.013e-08        5.013e-08        8.875e-08        
                   8.875e-08        1.194e-04       -1.612e-04        
                   1.326e+03        8.953e+02        2.500e+01        
                  1                 
 81                5.013e-08        5.013e-08        8.946e-08        
                   8.946e-08        1.204e-04       -1.625e-04        
                   1.337e+03        9.029e+02        2.500e+01        
                  1                 
 82                4.962e-08        4.962e-08        9.010e-08        
                   9.010e-08        1.228e-04       -1.662e-04        
                   1.364e+03        9.232e+02        2.500e+01        
                  1                 
 83                5.033e-08        5.033e-08        8.869e-08        
                   8.869e-08        1.187e-04       -1.601e-04        
                   1.319e+03        8.896e+02        2.500e+01        
                  1                 
 84                5.052e-08        5.052e-08        9.044e-08        
                   9.044e-08        1.207e-04       -1.626e-04        
                   1.341e+03        9.031e+02        2.500e+01        
                  1                 
 85                5.062e-08        5.062e-08        9.050e-08        
                   9.050e-08        1.206e-04       -1.623e-04        
                   1.339e+03        9.013e+02        2.500e+01        
                  1                 
 86                5.019e-08        5.019e-08        8.918e-08        
                   8.918e-08        1.198e-04       -1.617e-04        
                   1.331e+03        8.984e+02        2.500e+01        
                  1                 
 87                4.966e-08        4.966e-08        9.037e-08        
                   9.037e-08        1.231e-04       -1.665e-04        
                   1.367e+03        9.252e+02        2.500e+01        
                  1                 
 88                5.015e-08        5.015e-08        9.106e-08        
                   9.106e-08        1.227e-04       -1.655e-04        
                   1.363e+03        9.192e+02        2.500e+01        
                  1                 
 89                5.004e-08        5.004e-08        8.902e-08        
                   8.902e-08        1.200e-04       -1.621e-04        
                   1.333e+03        9.004e+02        2.500e+01        
                  1                 
 90                4.976e-08        4.976e-08        8.959e-08        
                   8.959e-08        1.217e-04       -1.646e-04        
                   1.352e+03        9.142e+02        2.500e+01        
                  1                 
 91                5.000e-08        5.000e-08        9.008e-08        
                   9.008e-08        1.217e-04       -1.644e-04        
                   1.352e+03        9.130e+02        2.500e+01        
                  1                 
 92                5.042e-08        5.042e-08        8.903e-08        
                   8.903e-08        1.190e-04       -1.604e-04        
                   1.321e+03        8.908e+02        2.500e+01        
                  1                 
 93                4.988e-08        4.988e-08        9.148e-08        
                   9.148e-08        1.241e-04       -1.676e-04        
                   1.378e+03        9.309e+02        2.500e+01        
                  1                 
 94                5.001e-08        5.001e-08        8.939e-08        
                   8.939e-08        1.207e-04       -1.630e-04        
                   1.340e+03        9.053e+02        2.500e+01        
                  1                 
 95                5.063e-08        5.063e-08        8.973e-08        
                   8.973e-08        1.194e-04       -1.607e-04        
                   1.326e+03        8.929e+02        2.500e+01        
                  1                 
 96                5.033e-08        5.033e-08        9.135e-08        
                   9.135e-08        1.226e-04       -1.652e-04        
                   1.362e+03        9.175e+02        2.500e+01        
                  1                 
 97                4.985e-08        4.985e-08        8.989e-08        
                   8.989e-08        1.218e-04       -1.647e-04        
                   1.353e+03        9.148e+02        2.500e+01        
                  1                 
 98                5.014e-08        5.014e-08        8.853e-08        
                   8.853e-08        1.190e-04       -1.607e-04        
                   1.322e+03        8.929e+02        2.500e+01        
                  1                 
 99                4.996e-08        4.996e-08        8.838e-08        
                   8.838e-08        1.193e-04       -1.613e-04        
                   1.325e+03        8.959e+02        2.500e+01        
                  1                 
 100               4.967e-08        4.967e-08        8.939e-08        
                   8.939e-08        1.216e-04       -1.646e-04        
                   1.351e+03        9.143e+02        2.500e+01        
                  1                 
 101               5.042e-08        5.042e-08        9.036e-08        
                   9.036e-08        1.209e-04       -1.629e-04        
                   1.343e+03        9.048e+02        2.500e+01        
                  1                 
 102               5.011e-08        5.011e-08        8.931e-08        
                   8.931e-08        1.203e-04       -1.624e-04        
                   1.336e+03        9.019e+02        2.500e+01        
                  1                 
 103               5.017e-08        5.017e-08        8.989e-08        
                   8.989e-08        1.209e-04       -1.631e-04        
                   1.343e+03        9.062e+02        2.500e+01        
                  1                 
 104               5.019e-08        5.019e-08        9.040e-08        
                   9.040e-08        1.216e-04       -1.640e-04        
                   1.351e+03        9.111e+02        2.500e+01        
                  1                 
 105               4.929e-08        4.929e-08        8.941e-08        
                   8.941e-08        1.228e-04       -1.665e-04        
                   1.364e+03        9.250e+02        2.500e+01        
                  1                 
 106               5.019e-08        5.019e-08        9.084e-08        
                   9.084e-08        1.223e-04       -1.649e-04        
                   1.358e+03        9.160e+02        2.500e+01        
                  1                 
 107               5.007e-08        5.007e-08        9.072e-08        
                   9.072e-08        1.224e-04       -1.652e-04        
                   1.360e+03        9.179e+02        2.500e+01        
                  1                 
 108               5.011e-08        5.011e-08        9.126e-08        
                   9.126e-08        1.231e-04       -1.661e-04        
                   1.367e+03        9.225e+02        2.500e+01        
                  1                 
 109               4.913e-08        4.913e-08        8.923e-08        
                   8.923e-08        1.230e-04       -1.670e-04        
                   1.366e+03        9.275e+02        2.500e+01        
                  1                 
 110               5.015e-08        5.015e-08        8.935e-08        
                   8.935e-08        1.202e-04       -1.622e-04        
                   1.335e+03        9.011e+02        2.500e+01        
                  1                 
 111               4.976e-08        4.976e-08        8.889e-08        
                   8.889e-08        1.206e-04       -1.632e-04        
                   1.340e+03        9.067e+02        2.500e+01        
                  1                 
 112               5.017e-08        5.017e-08        8.960e-08        
                   8.960e-08        1.205e-04       -1.626e-04        
                   1.339e+03        9.035e+02        2.500e+01        
                  1                 
 113               5.031e-08        5.031e-08        8.975e-08        
                   8.975e-08        1.203e-04       -1.623e-04        
                   1.337e+03        9.014e+02        2.500e+01        
                  1                 
 114               4.991e-08        4.991e-08        9.070e-08        
                   9.070e-08        1.229e-04       -1.660e-04        
                   1.365e+03        9.219e+02        2.500e+01        
                  1                 
 115               5.008e-08        5.008e-08        8.880e-08        
                   8.880e-08        1.196e-04       -1.615e-04        
                   1.328e+03        8.972e+02        2.500e+01        
                  1                 
 116               4.994e-08        4.994e-08        9.048e-08        
                   9.048e-08        1.224e-04       -1.654e-04        
                   1.360e+03        9.186e+02        2.500e+01        
                  1                 
 117               4.973e-08        4.973e-08        8.994e-08        
                   8.994e-08        1.223e-04       -1.653e-04        
                   1.358e+03        9.185e+02        2.500e+01        
                  1                 
 118               4.988e-08        4.988e-08        8.974e-08        
                   8.974e-08        1.216e-04       -1.643e-04        
                   1.350e+03        9.126e+02        2.500e+01        
                  1                 
 119               4.959e-08        4.959e-08        8.974e-08        
                   8.974e-08        1.224e-04       -1.657e-04        
                   1.360e+03        9.204e+02        2.500e+01        
                  1                 
 120               5.054e-08        5.054e-08        9.053e-08        
                   9.053e-08        1.208e-04       -1.626e-04        
                   1.342e+03        9.035e+02        2.500e+01        
                  1                 
 121               5.014e-08        5.014e-08        8.891e-08        
                   8.891e-08        1.196e-04       -1.614e-04        
                   1.328e+03        8.967e+02        2.500e+01        
                  1                 
 122               4.936e-08        4.936e-08        9.096e-08        
                   9.096e-08        1.249e-04       -1.692e-04        
                   1.387e+03        9.400e+02        2.500e+01        
                  1                 
 123               5.007e-08        5.007e-08        9.085e-08        
                   9.085e-08        1.226e-04       -1.655e-04        
                   1.362e+03        9.192e+02        2.500e+01        
                  1                 
 124               5.052e-08        5.052e-08        8.815e-08        
                   8.815e-08        1.174e-04       -1.583e-04        
                   1.304e+03        8.792e+02        2.500e+01        
                  1                 
 125               4.993e-08        4.993e-08        9.091e-08        
                   9.091e-08        1.231e-04       -1.663e-04        
                   1.368e+03        9.236e+02        2.500e+01        
                  1                 
 126               4.991e-08        4.991e-08        8.947e-08        
                   8.947e-08        1.211e-04       -1.636e-04        
                   1.345e+03        9.088e+02        2.500e+01        
                  1                 
 127               5.013e-08        5.013e-08        8.958e-08        
                   8.958e-08        1.206e-04       -1.627e-04        
                   1.339e+03        9.040e+02        2.500e+01        
                  1                 
 128               5.041e-08        5.041e-08        9.017e-08        
                   9.017e-08        1.207e-04       -1.626e-04        
                   1.340e+03        9.031e+02        2.500e+01        
                  1                 
 129               5.034e-08        5.034e-08        8.861e-08        
                   8.861e-08        1.186e-04       -1.599e-04        
                   1.317e+03        8.886e+02        2.500e+01        
                  1                 
 130               5.003e-08        5.003e-08        8.957e-08        
                   8.957e-08        1.209e-04       -1.632e-04        
                   1.342e+03        9.068e+02        2.500e+01        
                  1                 
 131               4.965e-08        4.965e-08        8.823e-08        
                   8.823e-08        1.200e-04       -1.624e-04        
                   1.333e+03        9.024e+02        2.500e+01        
                  1                 
 132               5.091e-08        5.091e-08        8.934e-08        
                   8.934e-08        1.181e-04       -1.588e-04        
                   1.312e+03        8.820e+02        2.500e+01        
                  1                 
 133               4.936e-08        4.936e-08        8.954e-08        
                   8.954e-08        1.228e-04       -1.664e-04        
                   1.364e+03        9.246e+02        2.500e+01        
                  1                 
 134               5.009e-08        5.009e-08        9.012e-08        
                   9.012e-08        1.215e-04       -1.640e-04        
                   1.349e+03        9.108e+02        2.500e+01        
                  1                 
 135               5.013e-08        5.013e-08        9.098e-08        
                   9.098e-08        1.226e-04       -1.654e-04        
                   1.362e+03        9.188e+02        2.500e+01        
                  1                 
 136               5.045e-08        5.045e-08        8.973e-08        
                   8.973e-08        1.199e-04       -1.616e-04        
                   1.332e+03        8.976e+02        2.500e+01        
                  1                 
 137               5.055e-08        5.055e-08        8.934e-08        
                   8.934e-08        1.191e-04       -1.604e-04        
                   1.323e+03        8.909e+02        2.500e+01        
                  1                 
 138               5.022e-08        5.022e-08        8.964e-08        
                   8.964e-08        1.204e-04       -1.625e-04        
                   1.338e+03        9.026e+02        2.500e+01        
                  1                 
 139               5.053e-08        5.053e-08        9.071e-08        
                   9.071e-08        1.211e-04       -1.630e-04        
                   1.345e+03        9.057e+02        2.500e+01        
                  1                 
 140               5.027e-08        5.027e-08        8.933e-08        
                   8.933e-08        1.198e-04       -1.616e-04        
                   1.331e+03        8.980e+02        2.500e+01        
                  1                 
 141               5.083e-08        5.083e-08        9.129e-08        
                   9.129e-08        1.211e-04       -1.627e-04        
                   1.345e+03        9.041e+02        2.500e+01        
                  1                 
 142               4.924e-08        4.924e-08        9.145e-08        
                   9.145e-08        1.260e-04       -1.707e-04        
                   1.399e+03        9.485e+02        2.500e+01        
                  1                 
 143               5.045e-08        5.045e-08        8.997e-08        
                   8.997e-08        1.203e-04       -1.620e-04        
                   1.336e+03        9.001e+02        2.500e+01        
                  1                 
 144               4.974e-08        4.974e-08        8.959e-08        
                   8.959e-08        1.217e-04       -1.646e-04        
                   1.352e+03        9.146e+02        2.500e+01        
                  1                 
 145               5.013e-08        5.013e-08        9.042e-08        
                   9.042e-08        1.218e-04       -1.644e-04        
                   1.353e+03        9.130e+02        2.500e+01        
                  1                 
 146               5.000e-08        5.000e-08        9.011e-08        
                   9.011e-08        1.217e-04       -1.644e-04        
                   1.352e+03        9.132e+02        2.500e+01        
                  1                 
 147               5.000e-08        5.000e-08        8.932e-08        
                   8.932e-08        1.206e-04       -1.629e-04        
                   1.339e+03        9.048e+02        2.500e+01        
                  1                 
 148               5.039e-08        5.039e-08        9.078e-08        
                   9.078e-08        1.216e-04       -1.638e-04        
                   1.351e+03        9.100e+02        2.500e+01        
                  1                 
 149               4.999e-08        4.999e-08        8.975e-08        
                   8.975e-08        1.212e-04       -1.638e-04        
                   1.347e+03        9.097e+02        2.500e+01        
                  1                 
 150               5.001e-08        5.001e-08        8.920e-08        
                   8.920e-08        1.204e-04       -1.626e-04        
                   1.337e+03        9.031e+02        2.500e+01        
                  1                 
 151               4.956e-08        4.956e-08        8.923e-08        
                   8.923e-08        1.217e-04       -1.648e-04        
                   1.352e+03        9.156e+02        2.500e+01        
                  1                 
 152               4.975e-08        4.975e-08        8.987e-08        
                   8.987e-08        1.221e-04       -1.651e-04        
                   1.356e+03        9.172e+02        2.500e+01        
                  1                 
 153               5.051e-08        5.051e-08        9.126e-08        
                   9.126e-08        1.220e-04       -1.641e-04        
                   1.355e+03        9.119e+02        2.500e+01        
                  1                 
 154               5.061e-08        5.061e-08        9.137e-08        
                   9.137e-08        1.218e-04       -1.639e-04        
                   1.353e+03        9.106e+02        2.500e+01        
                  1                 
 155               5.051e-08        5.051e-08        8.983e-08        
                   8.983e-08        1.199e-04       -1.615e-04        
                   1.332e+03        8.969e+02        2.500e+01        
                  1                 
 156               5.029e-08        5.029e-08        9.011e-08        
                   9.011e-08        1.209e-04       -1.630e-04        
                   1.343e+03        9.056e+02        2.500e+01        
                  1                 
 157               5.015e-08        5.015e-08        9.028e-08        
                   9.028e-08        1.215e-04       -1.640e-04        
                   1.350e+03        9.110e+02        2.500e+01        
                  1                 
 158               4.951e-08        4.951e-08        9.175e-08        
                   9.175e-08        1.256e-04       -1.700e-04        
                   1.395e+03        9.443e+02        2.500e+01        
                  1                 
 159               5.061e-08        5.061e-08        9.002e-08        
                   9.002e-08        1.199e-04       -1.614e-04        
                   1.332e+03        8.964e+02        2.500e+01        
                  1                 
 160               4.976e-08        4.976e-08        9.087e-08        
                   9.087e-08        1.235e-04       -1.670e-04        
                   1.372e+03        9.277e+02        2.500e+01        
                  1                 
 161               4.996e-08        4.996e-08        8.951e-08        
                   8.951e-08        1.210e-04       -1.634e-04        
                   1.344e+03        9.078e+02        2.500e+01        
                  1                 
 162               4.952e-08        4.952e-08        8.906e-08        
                   8.906e-08        1.216e-04       -1.647e-04        
                   1.351e+03        9.150e+02        2.500e+01        
                  1                 
 163               4.970e-08        4.970e-08        9.091e-08        
                   9.091e-08        1.238e-04       -1.674e-04        
                   1.375e+03        9.298e+02        2.500e+01        
                  1                 
 164               5.011e-08        5.011e-08        8.824e-08        
                   8.824e-08        1.187e-04       -1.603e-04        
                   1.318e+03        8.906e+02        2.500e+01        
                  1                 
 165               5.003e-08        5.003e-08        8.920e-08        
                   8.920e-08        1.203e-04       -1.625e-04        
                   1.336e+03        9.027e+02        2.500e+01        
                  1                 
 166               5.046e-08        5.046e-08        9.235e-08        
                   9.235e-08        1.237e-04       -1.665e-04        
                   1.374e+03        9.248e+02        2.500e+01        
                  1                 
 167               5.043e-08        5.043e-08        9.089e-08        
                   9.089e-08        1.216e-04       -1.638e-04        
                   1.351e+03        9.101e+02        2.500e+01        
                  1                 
 168               4.961e-08        4.961e-08        9.008e-08        
                   9.008e-08        1.228e-04       -1.662e-04        
                   1.364e+03        9.234e+02        2.500e+01        
                  1                 
 169               5.016e-08        5.016e-08        9.095e-08        
                   9.095e-08        1.225e-04       -1.652e-04        
                   1.361e+03        9.178e+02        2.500e+01        
                  1                 
 170               4.989e-08        4.989e-08        9.000e-08        
                   9.000e-08        1.219e-04       -1.647e-04        
                   1.354e+03        9.150e+02        2.500e+01        
                  1                 
 171               5.017e-08        5.017e-08        9.048e-08        
                   9.048e-08        1.218e-04       -1.643e-04        
                   1.353e+03        9.126e+02        2.500e+01        
                  1                 
 172               5.044e-08        5.044e-08        8.973e-08        
                   8.973e-08        1.199e-04       -1.616e-04        
                   1.332e+03        8.977e+02        2.500e+01        
                  1                 
 173               5.031e-08        5.031e-08        8.893e-08        
                   8.893e-08        1.191e-04       -1.607e-04        
                   1.323e+03        8.927e+02        2.500e+01        
                  1                 
 174               5.011e-08        5.011e-08        8.819e-08        
                   8.819e-08        1.186e-04       -1.602e-04        
                   1.317e+03        8.899e+02        2.500e+01        
                  1                 
 175               4.983e-08        4.983e-08        9.001e-08        
                   9.001e-08        1.221e-04       -1.650e-04        
                   1.356e+03        9.166e+02        2.500e+01        
                  1                 
 176               4.977e-08        4.977e-08        8.992e-08        
                   8.992e-08        1.221e-04       -1.651e-04        
                   1.357e+03        9.174e+02        2.500e+01        
                  1                 
 177               4.937e-08        4.937e-08        9.238e-08        
                   9.238e-08        1.270e-04       -1.719e-04        
                   1.410e+03        9.550e+02        2.500e+01        
                  1                 
 178               5.032e-08        5.032e-08        8.890e-08        
                   8.890e-08        1.191e-04       -1.606e-04        
                   1.322e+03        8.921e+02        2.500e+01        
                  1                 
 179               5.010e-08        5.010e-08        9.011e-08        
                   9.011e-08        1.214e-04       -1.639e-04        
                   1.349e+03        9.105e+02        2.500e+01        
                  1                 
 180               4.955e-08        4.955e-08        8.992e-08        
                   8.992e-08        1.228e-04       -1.662e-04        
                   1.364e+03        9.234e+02        2.500e+01        
                  1                 
 181               5.018e-08        5.018e-08        9.128e-08        
                   9.128e-08        1.229e-04       -1.658e-04        
                   1.365e+03        9.208e+02        2.500e+01        
                  1                 
 182               4.987e-08        4.987e-08        8.947e-08        
                   8.947e-08        1.212e-04       -1.638e-04        
                   1.346e+03        9.100e+02        2.500e+01        
                  1                 
 183               5.032e-08        5.032e-08        8.886e-08        
                   8.886e-08        1.190e-04       -1.605e-04        
                   1.322e+03        8.918e+02        2.500e+01        
                  1                 
 184               5.012e-08        5.012e-08        9.092e-08        
                   9.092e-08        1.226e-04       -1.654e-04        
                   1.362e+03        9.186e+02        2.500e+01        
                  1                 
 185               5.036e-08        5.036e-08        9.160e-08        
                   9.160e-08        1.229e-04       -1.655e-04        
                   1.365e+03        9.195e+02        2.500e+01        
                  1                 
 186               5.020e-08        5.020e-08        9.035e-08        
                   9.035e-08        1.215e-04       -1.639e-04        
                   1.350e+03        9.103e+02        2.500e+01        
                  1                 
 187               4.957e-08        4.957e-08        8.973e-08        
                   8.973e-08        1.224e-04       -1.657e-04        
                   1.360e+03        9.208e+02        2.500e+01        
                  1                 
 188               5.002e-08        5.002e-08        9.123e-08        
                   9.123e-08        1.233e-04       -1.664e-04        
                   1.370e+03        9.245e+02        2.500e+01        
                  1                 
 189               4.928e-08        4.928e-08        9.074e-08        
                   9.074e-08        1.248e-04       -1.691e-04        
                   1.386e+03        9.397e+02        2.500e+01        
                  1                 
 190               4.977e-08        4.977e-08        9.110e-08        
                   9.110e-08        1.239e-04       -1.674e-04        
                   1.376e+03        9.299e+02        2.500e+01        
                  1                 
 191               4.966e-08        4.966e-08        8.979e-08        
                   8.979e-08        1.222e-04       -1.654e-04        
                   1.358e+03        9.188e+02        2.500e+01        
                  1                 
 192               5.012e-08        5.012e-08        8.901e-08        
                   8.901e-08        1.198e-04       -1.617e-04        
                   1.331e+03        8.985e+02        2.500e+01        
                  1                 
 193               5.027e-08        5.027e-08        8.925e-08        
                   8.925e-08        1.197e-04       -1.615e-04        
                   1.330e+03        8.970e+02        2.500e+01        
                  1                 
 194               5.028e-08        5.028e-08        8.960e-08        
                   8.960e-08        1.202e-04       -1.621e-04        
                   1.335e+03        9.004e+02        2.500e+01        
                  1                 
 195               4.996e-08        4.996e-08        8.958e-08        
                   8.958e-08        1.211e-04       -1.636e-04        
                   1.345e+03        9.087e+02        2.500e+01        
                  1                 
 196               5.046e-08        5.046e-08        8.986e-08        
                   8.986e-08        1.201e-04       -1.618e-04        
                   1.334e+03        8.986e+02        2.500e+01        
                  1                 
 197               4.940e-08        4.940e-08        8.915e-08        
                   8.915e-08        1.221e-04       -1.655e-04        
                   1.356e+03        9.193e+02        2.500e+01        
                  1                 
 198               4.982e-08        4.982e-08        9.005e-08        
                   9.005e-08        1.222e-04       -1.651e-04        
                   1.357e+03        9.173e+02        2.500e+01        
                  1                 
 199               4.969e-08        4.969e-08        9.102e-08        
                   9.102e-08        1.240e-04       -1.677e-04        
                   1.377e+03        9.314e+02        2.500e+01        
                  1                 
 200               5.023e-08        5.023e-08        9.027e-08        
                   9.027e-08        1.213e-04       -1.636e-04        
                   1.347e+03        9.088e+02        2.500e+01        
                  1                 
 201               4.996e-08        4.996e-08        9.163e-08        
                   9.163e-08        1.241e-04       -1.675e-04        
                   1.378e+03        9.302e+02        2.500e+01        
                  1                 
 202               4.966e-08        4.966e-08        9.059e-08        
                   9.059e-08        1.234e-04       -1.670e-04        
                   1.371e+03        9.275e+02        2.500e+01        
                  1                 
 203               5.023e-08        5.023e-08        8.921e-08        
                   8.921e-08        1.198e-04       -1.616e-04        
                   1.331e+03        8.978e+02        2.500e+01        
                  1                 
 204               5.030e-08        5.030e-08        9.020e-08        
                   9.020e-08        1.210e-04       -1.631e-04        
                   1.344e+03        9.062e+02        2.500e+01        
                  1                 
 205               4.952e-08        4.952e-08        8.983e-08        
                   8.983e-08        1.227e-04       -1.662e-04        
                   1.363e+03        9.231e+02        2.500e+01        
                  1                 
 206               4.976e-08        4.976e-08        8.969e-08        
                   8.969e-08        1.218e-04       -1.647e-04        
                   1.353e+03        9.152e+02        2.500e+01        
                  1                 
 207               4.949e-08        4.949e-08        9.053e-08        
                   9.053e-08        1.239e-04       -1.677e-04        
                   1.376e+03        9.316e+02        2.500e+01        
                  1                 
 208               5.029e-08        5.029e-08        8.980e-08        
                   8.980e-08        1.205e-04       -1.624e-04        
                   1.338e+03        9.023e+02        2.500e+01        
                  1                 
 209               4.956e-08        4.956e-08        9.047e-08        
                   9.047e-08        1.236e-04       -1.672e-04        
                   1.372e+03        9.290e+02        2.500e+01        
                  1                 
 210               5.004e-08        5.004e-08        8.969e-08        
                   8.969e-08        1.210e-04       -1.634e-04        
                   1.344e+03        9.076e+02        2.500e+01        
                  1                 
 211               4.980e-08        4.980e-08        9.084e-08        
                   9.084e-08        1.234e-04       -1.667e-04        
                   1.370e+03        9.262e+02        2.500e+01        
                  1                 
 212               5.016e-08        5.016e-08        9.123e-08        
                   9.123e-08        1.229e-04       -1.658e-04        
                   1.365e+03        9.208e+02        2.500e+01        
                  1                 
 213               5.015e-08        5.015e-08        8.987e-08        
                   8.987e-08        1.210e-04       -1.632e-04        
                   1.344e+03        9.067e+02        2.500e+01        
                  1                 
 214               4.982e-08        4.982e-08        8.934e-08        
                   8.934e-08        1.211e-04       -1.638e-04        
                   1.345e+03        9.098e+02        2.500e+01        
                  1                 
 215               4.985e-08        4.985e-08        8.973e-08        
                   8.973e-08        1.216e-04       -1.644e-04        
                   1.351e+03        9.131e+02        2.500e+01        
                  1                 
 216               5.021e-08        5.021e-08        8.954e-08        
                   8.954e-08        1.203e-04       -1.623e-04        
                   1.336e+03        9.016e+02        2.500e+01        
                  1                 
 217               5.028e-08        5.028e-08        9.121e-08        
                   9.121e-08        1.225e-04       -1.652e-04        
                   1.361e+03        9.175e+02        2.500e+01        
                  1                 
 218               4.961e-08        4.961e-08        8.991e-08        
                   8.991e-08        1.226e-04       -1.659e-04        
                   1.362e+03        9.217e+02        2.500e+01        
                  1                 
 219               4.972e-08        4.972e-08        9.020e-08        
                   9.020e-08        1.227e-04       -1.659e-04        
                   1.363e+03        9.217e+02        2.500e+01        
                  1                 
 220               5.025e-08        5.025e-08        8.984e-08        
                   8.984e-08        1.206e-04       -1.627e-04        
                   1.340e+03        9.037e+02        2.500e+01        
                  1                 
 221               4.979e-08        4.979e-08        9.111e-08        
                   9.111e-08        1.238e-04       -1.673e-04        
                   1.375e+03        9.296e+02        2.500e+01        
                  1                 
 222               4.998e-08        4.998e-08        9.030e-08        
                   9.030e-08        1.221e-04       -1.649e-04        
                   1.356e+03        9.158e+02        2.500e+01        
                  1                 
 223               4.968e-08        4.968e-08        9.141e-08        
                   9.141e-08        1.246e-04       -1.685e-04        
                   1.384e+03        9.358e+02        2.500e+01        
                  1                 
 224               4.978e-08        4.978e-08        9.066e-08        
                   9.066e-08        1.232e-04       -1.665e-04        
                   1.368e+03        9.248e+02        2.500e+01        
                  1                 
 225               4.979e-08        4.979e-08        9.047e-08        
                   9.047e-08        1.229e-04       -1.661e-04        
                   1.365e+03        9.226e+02        2.500e+01        
                  1                 
 226               4.997e-08        4.997e-08        8.960e-08        
                   8.960e-08        1.211e-04       -1.635e-04        
                   1.345e+03        9.086e+02        2.500e+01        
                  1                 
 227               4.972e-08        4.972e-08        8.978e-08        
                   8.978e-08        1.221e-04       -1.651e-04        
                   1.356e+03        9.173e+02        2.500e+01        
                  1                 
 228               4.926e-08        4.926e-08        8.963e-08        
                   8.963e-08        1.232e-04       -1.671e-04        
                   1.369e+03        9.284e+02        2.500e+01        
                  1                 
 229               5.040e-08        5.040e-08        8.977e-08        
                   8.977e-08        1.201e-04       -1.619e-04        
                   1.334e+03        8.993e+02        2.500e+01        
                  1                 
 230               5.014e-08        5.014e-08        8.855e-08        
                   8.855e-08        1.191e-04       -1.608e-04        
                   1.322e+03        8.930e+02        2.500e+01        
                  1                 
 231               4.933e-08        4.933e-08        9.027e-08        
                   9.027e-08        1.239e-04       -1.680e-04        
                   1.377e+03        9.332e+02        2.500e+01        
                  1                 
 232               4.994e-08        4.994e-08        9.023e-08        
                   9.023e-08        1.221e-04       -1.649e-04        
                   1.356e+03        9.160e+02        2.500e+01        
                  1                 
 233               4.979e-08        4.979e-08        9.002e-08        
                   9.002e-08        1.222e-04       -1.652e-04        
                   1.358e+03        9.179e+02        2.500e+01        
                  1                 
 234               5.028e-08        5.028e-08        9.058e-08        
                   9.058e-08        1.216e-04       -1.639e-04        
                   1.351e+03        9.107e+02        2.500e+01        
                  1                 
 235               4.999e-08        4.999e-08        8.985e-08        
                   8.985e-08        1.214e-04       -1.639e-04        
                   1.348e+03        9.107e+02        2.500e+01        
                  1                 
 236               5.002e-08        5.002e-08        9.075e-08        
                   9.075e-08        1.226e-04       -1.655e-04        
                   1.362e+03        9.194e+02        2.500e+01        
                  1                 
 237               4.963e-08        4.963e-08        9.087e-08        
                   9.087e-08        1.239e-04       -1.676e-04        
                   1.376e+03        9.312e+02        2.500e+01        
                  1                 
 238               5.053e-08        5.053e-08        9.015e-08        
                   9.015e-08        1.203e-04       -1.620e-04        
                   1.336e+03        8.998e+02        2.500e+01        
                  1                 
 239               5.021e-08        5.021e-08        8.920e-08        
                   8.920e-08        1.198e-04       -1.616e-04        
                   1.331e+03        8.980e+02        2.500e+01        
                  1                 
 240               4.971e-08        4.971e-08        8.996e-08        
                   8.996e-08        1.223e-04       -1.655e-04        
                   1.359e+03        9.193e+02        2.500e+01        
                  1                 
 241               5.038e-08        5.038e-08        8.947e-08        
                   8.947e-08        1.197e-04       -1.614e-04        
                   1.330e+03        8.965e+02        2.500e+01        
                  1                 
 242               4.975e-08        4.975e-08        9.048e-08        
                   9.048e-08        1.230e-04       -1.663e-04        
                   1.366e+03        9.238e+02        2.500e+01        
                  1                 
 243               5.019e-08        5.019e-08        8.990e-08        
                   8.990e-08        1.209e-04       -1.631e-04        
                   1.343e+03        9.059e+02        2.500e+01        
                  1                 
 244               4.966e-08        4.966e-08        9.054e-08        
                   9.054e-08        1.234e-04       -1.668e-04        
                   1.370e+03        9.269e+02        2.500e+01        
                  1                 
 245               5.004e-08        5.004e-08        9.009e-08        
                   9.009e-08        1.216e-04       -1.641e-04        
                   1.350e+03        9.119e+02        2.500e+01        
                  1                 
 246               4.940e-08        4.940e-08        9.075e-08        
                   9.075e-08        1.245e-04       -1.686e-04        
                   1.383e+03        9.365e+02        2.500e+01        
                  1                 
 247               5.016e-08        5.016e-08        9.015e-08        
                   9.015e-08        1.213e-04       -1.637e-04        
                   1.348e+03        9.094e+02        2.500e+01        
                  1                 
 248               4.976e-08        4.976e-08        8.978e-08        
                   8.978e-08        1.220e-04       -1.649e-04        
                   1.355e+03        9.162e+02        2.500e+01        
                  1                 
 249               4.956e-08        4.956e-08        9.120e-08        
                   9.120e-08        1.246e-04       -1.686e-04        
                   1.384e+03        9.368e+02        2.500e+01        
                  1                 
 250               5.048e-08        5.048e-08        8.958e-08        
                   8.958e-08        1.196e-04       -1.611e-04        
                   1.329e+03        8.951e+02        2.500e+01        
                  1                 
 251               5.020e-08        5.020e-08        8.839e-08        
                   8.839e-08        1.187e-04       -1.602e-04        
                   1.318e+03        8.899e+02        2.500e+01        
                  1                 
 252               4.946e-08        4.946e-08        8.959e-08        
                   8.959e-08        1.226e-04       -1.660e-04        
                   1.361e+03        9.223e+02        2.500e+01        
                  1                 
 253               5.004e-08        5.004e-08        9.004e-08        
                   9.004e-08        1.215e-04       -1.641e-04        
                   1.350e+03        9.113e+02        2.500e+01        
                  1                 
 254               5.024e-08        5.024e-08        8.968e-08        
                   8.968e-08        1.204e-04       -1.624e-04        
                   1.338e+03        9.024e+02        2.500e+01        
                  1                 
 255               4.997e-08        4.997e-08        8.986e-08        
                   8.986e-08        1.215e-04       -1.641e-04        
                   1.349e+03        9.114e+02        2.500e+01        
                  1                 
 256               5.002e-08        5.002e-08        8.958e-08        
                   8.958e-08        1.209e-04       -1.633e-04        
                   1.343e+03        9.071e+02        2.500e+01        
                  1                 
 257               4.963e-08        4.963e-08        8.862e-08        
                   8.862e-08        1.206e-04       -1.633e-04        
                   1.340e+03        9.073e+02        2.500e+01        
                  1                 
 258               5.009e-08        5.009e-08        9.016e-08        
                   9.016e-08        1.215e-04       -1.640e-04        
                   1.350e+03        9.113e+02        2.500e+01        
                  1                 
 259               4.961e-08        4.961e-08        9.021e-08        
                   9.021e-08        1.230e-04       -1.665e-04        
                   1.367e+03        9.249e+02        2.500e+01        
                  1                 
 260               5.035e-08        5.035e-08        8.822e-08        
                   8.822e-08        1.180e-04       -1.592e-04        
                   1.311e+03        8.843e+02        2.500e+01        
                  1                 
 261               4.938e-08        4.938e-08        9.053e-08        
                   9.053e-08        1.242e-04       -1.682e-04        
                   1.379e+03        9.346e+02        2.500e+01        
                  1                 
 262               5.021e-08        5.021e-08        9.072e-08        
                   9.072e-08        1.220e-04       -1.646e-04        
                   1.355e+03        9.142e+02        2.500e+01        
                  1                 
 263               4.938e-08        4.938e-08        8.983e-08        
                   8.983e-08        1.231e-04       -1.669e-04        
                   1.368e+03        9.270e+02        2.500e+01        
                  1                 
 264               5.029e-08        5.029e-08        9.096e-08        
                   9.096e-08        1.222e-04       -1.646e-04        
                   1.357e+03        9.146e+02        2.500e+01        
                  1                 
 265               5.004e-08        5.004e-08        9.004e-08        
                   9.004e-08        1.215e-04       -1.641e-04        
                   1.350e+03        9.114e+02        2.500e+01        
                  1                 
 266               4.995e-08        4.995e-08        8.919e-08        
                   8.919e-08        1.205e-04       -1.628e-04        
                   1.339e+03        9.047e+02        2.500e+01        
                  1                 
 267               4.946e-08        4.946e-08        8.915e-08        
                   8.915e-08        1.219e-04       -1.652e-04        
                   1.354e+03        9.176e+02        2.500e+01        
                  1                 
 268               5.010e-08        5.010e-08        9.007e-08        
                   9.007e-08        1.214e-04       -1.638e-04        
                   1.348e+03        9.101e+02        2.500e+01        
                  1                 
 269               5.027e-08        5.027e-08        9.013e-08        
                   9.013e-08        1.210e-04       -1.631e-04        
                   1.344e+03        9.063e+02        2.500e+01        
                  1                 
 270               5.025e-08        5.025e-08        8.975e-08        
                   8.975e-08        1.205e-04       -1.625e-04        
                   1.338e+03        9.029e+02        2.500e+01        
                  1                 
 271               5.006e-08        5.006e-08        8.855e-08        
                   8.855e-08        1.193e-04       -1.611e-04        
                   1.325e+03        8.950e+02        2.500e+01        
                  1                 
 272               5.058e-08        5.058e-08        8.908e-08        
                   8.908e-08        1.186e-04       -1.597e-04        
                   1.317e+03        8.874e+02        2.500e+01        
                  1                 
 273               5.040e-08        5.040e-08        8.878e-08        
                   8.878e-08        1.187e-04       -1.600e-04        
                   1.318e+03        8.888e+02        2.500e+01        
                  1                 
 274               5.029e-08        5.029e-08        8.990e-08        
                   8.990e-08        1.206e-04       -1.626e-04        
                   1.340e+03        9.033e+02        2.500e+01        
                  1                 
 275               4.999e-08        4.999e-08        9.043e-08        
                   9.043e-08        1.222e-04       -1.650e-04        
                   1.358e+03        9.168e+02        2.500e+01        
                  1                 
 276               4.981e-08        4.981e-08        8.969e-08        
                   8.969e-08        1.217e-04       -1.645e-04        
                   1.351e+03        9.138e+02        2.500e+01        
                  1                 
 277               4.991e-08        4.991e-08        9.032e-08        
                   9.032e-08        1.223e-04       -1.652e-04        
                   1.358e+03        9.178e+02        2.500e+01        
                  1                 
 278               4.996e-08        4.996e-08        8.884e-08        
                   8.884e-08        1.200e-04       -1.622e-04        
                   1.333e+03        9.008e+02        2.500e+01        
                  1                 
 279               4.984e-08        4.984e-08        8.965e-08        
                   8.965e-08        1.215e-04       -1.643e-04        
                   1.350e+03        9.126e+02        2.500e+01        
                  1                 
 280               5.021e-08        5.021e-08        8.911e-08        
                   8.911e-08        1.197e-04       -1.615e-04        
                   1.329e+03        8.970e+02        2.500e+01        
                  1                 
 281               4.999e-08        4.999e-08        8.886e-08        
                   8.886e-08        1.199e-04       -1.621e-04        
                   1.332e+03        9.003e+02        2.500e+01        
                  1                 
 282               4.957e-08        4.957e-08        8.894e-08        
                   8.894e-08        1.213e-04       -1.642e-04        
                   1.347e+03        9.124e+02        2.500e+01        
                  1                 
 283               4.964e-08        4.964e-08        8.985e-08        
                   8.985e-08        1.224e-04       -1.656e-04        
                   1.360e+03        9.201e+02        2.500e+01        
                  1                 
 284               4.963e-08        4.963e-08        8.977e-08        
                   8.977e-08        1.223e-04       -1.655e-04        
                   1.359e+03        9.195e+02        2.500e+01        
                  1                 
 285               4.987e-08        4.987e-08        8.997e-08        
                   8.997e-08        1.219e-04       -1.648e-04        
                   1.354e+03        9.153e+02        2.500e+01        
                  1                 
 286               5.004e-08        5.004e-08        9.001e-08        
                   9.001e-08        1.215e-04       -1.640e-04        
                   1.349e+03        9.111e+02        2.500e+01        
                  1                 
 287               4.967e-08        4.967e-08        8.979e-08        
                   8.979e-08        1.222e-04       -1.654e-04        
                   1.358e+03        9.188e+02        2.500e+01        
                  1                 
 288               5.043e-08        5.043e-08        8.941e-08        
                   8.941e-08        1.195e-04       -1.610e-04        
                   1.327e+03        8.946e+02        2.500e+01        
                  1                 
 289               4.973e-08        4.973e-08        8.836e-08        
                   8.836e-08        1.200e-04       -1.624e-04        
                   1.332e+03        9.019e+02        2.500e+01        
                  1                 
 290               5.045e-08        5.045e-08        8.983e-08        
                   8.983e-08        1.200e-04       -1.617e-04        
                   1.333e+03        8.985e+02        2.500e+01        
                  1                 
 291               5.026e-08        5.026e-08        8.999e-08        
                   8.999e-08        1.208e-04       -1.629e-04        
                   1.342e+03        9.052e+02        2.500e+01        
                  1                 
 292               5.037e-08        5.037e-08        8.869e-08        
                   8.869e-08        1.186e-04       -1.599e-04        
                   1.317e+03        8.885e+02        2.500e+01        
                  1                 
 293               5.057e-08        5.057e-08        9.162e-08        
                   9.162e-08        1.223e-04       -1.646e-04        
                   1.359e+03        9.143e+02        2.500e+01        
                  1                 
 294               4.990e-08        4.990e-08        9.010e-08        
                   9.010e-08        1.220e-04       -1.649e-04        
                   1.355e+03        9.158e+02        2.500e+01        
                  1                 
 295               5.047e-08        5.047e-08        8.996e-08        
                   8.996e-08        1.202e-04       -1.619e-04        
                   1.335e+03        8.993e+02        2.500e+01        
                  1                 
 296               4.957e-08        4.957e-08        8.932e-08        
                   8.932e-08        1.218e-04       -1.650e-04        
                   1.353e+03        9.164e+02        2.500e+01        
                  1                 
 297               5.025e-08        5.025e-08        9.106e-08        
                   9.106e-08        1.224e-04       -1.650e-04        
                   1.360e+03        9.165e+02        2.500e+01        
                  1                 
 298               5.050e-08        5.050e-08        8.950e-08        
                   8.950e-08        1.194e-04       -1.609e-04        
                   1.327e+03        8.938e+02        2.500e+01        
                  1                 
 299               5.014e-08        5.014e-08        8.830e-08        
                   8.830e-08        1.187e-04       -1.603e-04        
                   1.318e+03        8.903e+02        2.500e+01        
                  1                 
 300               5.005e-08        5.005e-08        8.917e-08        
                   8.917e-08        1.202e-04       -1.624e-04        
                   1.335e+03        9.019e+02        2.500e+01        
                  1                 
 301               5.032e-08        5.032e-08        9.080e-08        
                   9.080e-08        1.218e-04       -1.642e-04        
                   1.353e+03        9.121e+02        2.500e+01        
                  1                 
 302               5.019e-08        5.019e-08        8.873e-08        
                   8.873e-08        1.192e-04       -1.608e-04        
                   1.324e+03        8.935e+02        2.500e+01        
                  1                 
 303               5.017e-08        5.017e-08        9.067e-08        
                   9.067e-08        1.221e-04       -1.646e-04        
                   1.356e+03        9.146e+02        2.500e+01        
                  1                 
 304               4.995e-08        4.995e-08        9.064e-08        
                   9.064e-08        1.227e-04       -1.656e-04        
                   1.362e+03        9.202e+02        2.500e+01        
                  1                 
 305               5.012e-08        5.012e-08        8.908e-08        
                   8.908e-08        1.199e-04       -1.619e-04        
                   1.332e+03        8.992e+02        2.500e+01        
                  1                 
 306               5.035e-08        5.035e-08        9.054e-08        
                   9.054e-08        1.214e-04       -1.635e-04        
                   1.348e+03        9.085e+02        2.500e+01        
                  1                 
 307               4.979e-08        4.979e-08        8.908e-08        
                   8.908e-08        1.208e-04       -1.634e-04        
                   1.342e+03        9.078e+02        2.500e+01        
                  1                 
 308               5.049e-08        5.049e-08        8.860e-08        
                   8.860e-08        1.182e-04       -1.592e-04        
                   1.312e+03        8.846e+02        2.500e+01        
                  1                 
 309               5.010e-08        5.010e-08        8.970e-08        
                   8.970e-08        1.208e-04       -1.631e-04        
                   1.342e+03        9.061e+02        2.500e+01        
                  1                 
 310               4.982e-08        4.982e-08        9.027e-08        
                   9.027e-08        1.225e-04       -1.656e-04        
                   1.361e+03        9.197e+02        2.500e+01        
                  1                 
 311               5.033e-08        5.033e-08        8.915e-08        
                   8.915e-08        1.194e-04       -1.610e-04        
                   1.326e+03        8.945e+02        2.500e+01        
                  1                 
 312               4.941e-08        4.941e-08        8.986e-08        
                   8.986e-08        1.231e-04       -1.668e-04        
                   1.367e+03        9.265e+02        2.500e+01        
                  1                 
 313               5.038e-08        5.038e-08        9.017e-08        
                   9.017e-08        1.207e-04       -1.627e-04        
                   1.341e+03        9.039e+02        2.500e+01        
                  1                 
 314               5.055e-08        5.055e-08        9.134e-08        
                   9.134e-08        1.220e-04       -1.641e-04        
                   1.355e+03        9.117e+02        2.500e+01        
                  1                 
 315               4.951e-08        4.951e-08        8.978e-08        
                   8.978e-08        1.227e-04       -1.661e-04        
                   1.363e+03        9.229e+02        2.500e+01        
                  1                 
 316               5.081e-08        5.081e-08        8.914e-08        
                   8.914e-08        1.181e-04       -1.588e-04        
                   1.312e+03        8.823e+02        2.500e+01        
                  1                 
 317               5.030e-08        5.030e-08        8.996e-08        
                   8.996e-08        1.207e-04       -1.627e-04        
                   1.340e+03        9.039e+02        2.500e+01        
                  1                 
 318               4.994e-08        4.994e-08        8.948e-08        
                   8.948e-08        1.210e-04       -1.635e-04        
                   1.344e+03        9.083e+02        2.500e+01        
                  1                 
 319               5.049e-08        5.049e-08        8.968e-08        
                   8.968e-08        1.197e-04       -1.613e-04        
[...]
                   8.997e-08        1.222e-04       -1.653e-04        
                   1.358e+03        9.183e+02        2.500e+01        
                  1                 
 2422              4.943e-08        4.943e-08        8.889e-08        
                   8.889e-08        1.216e-04       -1.648e-04        
                   1.351e+03        9.156e+02        2.500e+01        
                  1                 
 2423              4.942e-08        4.942e-08        9.096e-08        
                   9.096e-08        1.247e-04       -1.689e-04        
                   1.385e+03        9.382e+02        2.500e+01        
                  1                 
 2424              4.970e-08        4.970e-08        8.965e-08        
                   8.965e-08        1.219e-04       -1.650e-04        
                   1.354e+03        9.164e+02        2.500e+01        
                  1                 
 2425              4.944e-08        4.944e-08        9.030e-08        
                   9.030e-08        1.237e-04       -1.675e-04        
                   1.374e+03        9.305e+02        2.500e+01        
                  1                 
 2426              5.022e-08        5.022e-08        9.036e-08        
                   9.036e-08        1.215e-04       -1.638e-04        
                   1.349e+03        9.101e+02        2.500e+01        
                  1                 
 2427              4.982e-08        4.982e-08        9.112e-08        
                   9.112e-08        1.237e-04       -1.672e-04        
                   1.374e+03        9.287e+02        2.500e+01        
                  1                 
 2428              5.009e-08        5.009e-08        9.115e-08        
                   9.115e-08        1.230e-04       -1.659e-04        
                   1.366e+03        9.217e+02        2.500e+01        
                  1                 
 2429              5.007e-08        5.007e-08        8.968e-08        
                   8.968e-08        1.209e-04       -1.632e-04        
                   1.343e+03        9.069e+02        2.500e+01        
                  1                 
 2430              4.990e-08        4.990e-08        8.917e-08        
                   8.917e-08        1.206e-04       -1.631e-04        
                   1.340e+03        9.059e+02        2.500e+01        
                  1                 
 2431              4.978e-08        4.978e-08        8.961e-08        
                   8.961e-08        1.216e-04       -1.645e-04        
                   1.351e+03        9.138e+02        2.500e+01        
                  1                 
 2432              4.948e-08        4.948e-08        9.060e-08        
                   9.060e-08        1.240e-04       -1.679e-04        
                   1.377e+03        9.325e+02        2.500e+01        
                  1                 
 2433              5.020e-08        5.020e-08        8.915e-08        
                   8.915e-08        1.198e-04       -1.616e-04        
                   1.330e+03        8.978e+02        2.500e+01        
                  1                 
 2434              5.042e-08        5.042e-08        9.078e-08        
                   9.078e-08        1.215e-04       -1.637e-04        
                   1.350e+03        9.093e+02        2.500e+01        
                  1                 
 2435              5.024e-08        5.024e-08        9.006e-08        
                   9.006e-08        1.210e-04       -1.632e-04        
                   1.344e+03        9.064e+02        2.500e+01        
                  1                 
 2436              5.002e-08        5.002e-08        9.154e-08        
                   9.154e-08        1.237e-04       -1.670e-04        
                   1.375e+03        9.276e+02        2.500e+01        
                  1                 
 2437              4.994e-08        4.994e-08        8.953e-08        
                   8.953e-08        1.211e-04       -1.636e-04        
                   1.345e+03        9.086e+02        2.500e+01        
                  1                 
 2438              5.047e-08        5.047e-08        8.900e-08        
                   8.900e-08        1.188e-04       -1.601e-04        
                   1.320e+03        8.893e+02        2.500e+01        
                  1                 
 2439              4.980e-08        4.980e-08        9.003e-08        
                   9.003e-08        1.222e-04       -1.652e-04        
                   1.357e+03        9.176e+02        2.500e+01        
                  1                 
 2440              4.975e-08        4.975e-08        8.811e-08        
                   8.811e-08        1.195e-04       -1.617e-04        
                   1.327e+03        8.985e+02        2.500e+01        
                  1                 
 2441              4.971e-08        4.971e-08        9.068e-08        
                   9.068e-08        1.234e-04       -1.669e-04        
                   1.371e+03        9.270e+02        2.500e+01        
                  1                 
 2442              5.024e-08        5.024e-08        9.059e-08        
                   9.059e-08        1.217e-04       -1.641e-04        
                   1.352e+03        9.119e+02        2.500e+01        
                  1                 
 2443              4.975e-08        4.975e-08        8.901e-08        
                   8.901e-08        1.209e-04       -1.635e-04        
                   1.342e+03        9.083e+02        2.500e+01        
                  1                 
 2444              4.979e-08        4.979e-08        8.919e-08        
                   8.919e-08        1.210e-04       -1.636e-04        
                   1.344e+03        9.091e+02        2.500e+01        
                  1                 
 2445              4.971e-08        4.971e-08        9.051e-08        
                   9.051e-08        1.232e-04       -1.666e-04        
                   1.368e+03        9.253e+02        2.500e+01        
                  1                 
 2446              5.088e-08        5.088e-08        9.012e-08        
                   9.012e-08        1.193e-04       -1.604e-04        
                   1.325e+03        8.909e+02        2.500e+01        
                  1                 
 2447              5.023e-08        5.023e-08        9.012e-08        
                   9.012e-08        1.211e-04       -1.633e-04        
                   1.345e+03        9.072e+02        2.500e+01        
                  1                 
 2448              5.051e-08        5.051e-08        8.999e-08        
                   8.999e-08        1.201e-04       -1.617e-04        
                   1.334e+03        8.985e+02        2.500e+01        
                  1                 
 2449              5.046e-08        5.046e-08        8.957e-08        
                   8.957e-08        1.197e-04       -1.612e-04        
                   1.329e+03        8.956e+02        2.500e+01        
                  1                 
 2450              4.975e-08        4.975e-08        8.944e-08        
                   8.944e-08        1.215e-04       -1.643e-04        
                   1.349e+03        9.128e+02        2.500e+01        
                  1                 
 2451              4.969e-08        4.969e-08        9.005e-08        
                   9.005e-08        1.226e-04       -1.658e-04        
                   1.361e+03        9.210e+02        2.500e+01        
                  1                 
 2452              4.974e-08        4.974e-08        8.927e-08        
                   8.927e-08        1.213e-04       -1.640e-04        
                   1.347e+03        9.113e+02        2.500e+01        
                  1                 
 2453              5.009e-08        5.009e-08        9.020e-08        
                   9.020e-08        1.216e-04       -1.641e-04        
                   1.351e+03        9.117e+02        2.500e+01        
                  1                 
 2454              5.027e-08        5.027e-08        8.931e-08        
                   8.931e-08        1.198e-04       -1.616e-04        
                   1.331e+03        8.977e+02        2.500e+01        
                  1                 
 2455              4.985e-08        4.985e-08        9.038e-08        
                   9.038e-08        1.226e-04       -1.656e-04        
                   1.361e+03        9.201e+02        2.500e+01        
                  1                 
 2456              4.992e-08        4.992e-08        8.990e-08        
                   8.990e-08        1.216e-04       -1.643e-04        
                   1.351e+03        9.130e+02        2.500e+01        
                  1                 
 2457              5.017e-08        5.017e-08        8.987e-08        
                   8.987e-08        1.209e-04       -1.631e-04        
                   1.343e+03        9.060e+02        2.500e+01        
                  1                 
 2458              4.971e-08        4.971e-08        9.105e-08        
                   9.105e-08        1.240e-04       -1.676e-04        
                   1.377e+03        9.312e+02        2.500e+01        
                  1                 
 2459              5.054e-08        5.054e-08        8.926e-08        
                   8.926e-08        1.190e-04       -1.603e-04        
                   1.322e+03        8.903e+02        2.500e+01        
                  1                 
 2460              5.029e-08        5.029e-08        9.007e-08        
                   9.007e-08        1.209e-04       -1.630e-04        
                   1.342e+03        9.053e+02        2.500e+01        
                  1                 
 2461              5.025e-08        5.025e-08        9.036e-08        
                   9.036e-08        1.214e-04       -1.637e-04        
                   1.348e+03        9.092e+02        2.500e+01        
                  1                 
 2462              4.948e-08        4.948e-08        9.025e-08        
                   9.025e-08        1.235e-04       -1.672e-04        
                   1.371e+03        9.287e+02        2.500e+01        
                  1                 
 2463              4.977e-08        4.977e-08        8.937e-08        
                   8.937e-08        1.213e-04       -1.641e-04        
                   1.348e+03        9.115e+02        2.500e+01        
                  1                 
 2464              4.980e-08        4.980e-08        8.850e-08        
                   8.850e-08        1.199e-04       -1.623e-04        
                   1.332e+03        9.014e+02        2.500e+01        
                  1                 
 2465              5.024e-08        5.024e-08        8.975e-08        
                   8.975e-08        1.205e-04       -1.626e-04        
                   1.339e+03        9.030e+02        2.500e+01        
                  1                 
 2466              4.962e-08        4.962e-08        8.952e-08        
                   8.952e-08        1.220e-04       -1.651e-04        
                   1.355e+03        9.173e+02        2.500e+01        
                  1                 
 2467              4.990e-08        4.990e-08        8.947e-08        
                   8.947e-08        1.211e-04       -1.636e-04        
                   1.345e+03        9.089e+02        2.500e+01        
                  1                 
 2468              4.959e-08        4.959e-08        8.926e-08        
                   8.926e-08        1.217e-04       -1.647e-04        
                   1.352e+03        9.152e+02        2.500e+01        
                  1                 
 2469              4.971e-08        4.971e-08        9.055e-08        
                   9.055e-08        1.232e-04       -1.666e-04        
                   1.369e+03        9.256e+02        2.500e+01        
                  1                 
 2470              4.919e-08        4.919e-08        9.046e-08        
                   9.046e-08        1.247e-04       -1.691e-04        
                   1.385e+03        9.394e+02        2.500e+01        
                  1                 
 2471              4.993e-08        4.993e-08        9.035e-08        
                   9.035e-08        1.223e-04       -1.652e-04        
                   1.358e+03        9.175e+02        2.500e+01        
                  1                 
 2472              5.007e-08        5.007e-08        9.192e-08        
                   9.192e-08        1.242e-04       -1.675e-04        
                   1.379e+03        9.306e+02        2.500e+01        
                  1                 
 2473              4.971e-08        4.971e-08        9.089e-08        
                   9.089e-08        1.237e-04       -1.673e-04        
                   1.374e+03        9.294e+02        2.500e+01        
                  1                 
 2474              4.947e-08        4.947e-08        9.090e-08        
                   9.090e-08        1.245e-04       -1.685e-04        
                   1.383e+03        9.362e+02        2.500e+01        
                  1                 
 2475              4.972e-08        4.972e-08        9.060e-08        
                   9.060e-08        1.233e-04       -1.667e-04        
                   1.369e+03        9.260e+02        2.500e+01        
                  1                 
 2476              5.040e-08        5.040e-08        9.084e-08        
                   9.084e-08        1.217e-04       -1.639e-04        
                   1.351e+03        9.104e+02        2.500e+01        
                  1                 
 2477              4.990e-08        4.990e-08        9.087e-08        
                   9.087e-08        1.231e-04       -1.663e-04        
                   1.368e+03        9.240e+02        2.500e+01        
                  1                 
 2478              5.009e-08        5.009e-08        9.141e-08        
                   9.141e-08        1.234e-04       -1.664e-04        
                   1.370e+03        9.246e+02        2.500e+01        
                  1                 
 2479              5.046e-08        5.046e-08        9.041e-08        
                   9.041e-08        1.209e-04       -1.628e-04        
                   1.342e+03        9.043e+02        2.500e+01        
                  1                 
 2480              4.996e-08        4.996e-08        9.093e-08        
                   9.093e-08        1.230e-04       -1.661e-04        
                   1.367e+03        9.229e+02        2.500e+01        
                  1                 
 2481              4.989e-08        4.989e-08        9.011e-08        
                   9.011e-08        1.221e-04       -1.649e-04        
                   1.356e+03        9.162e+02        2.500e+01        
                  1                 
 2482              4.984e-08        4.984e-08        8.886e-08        
                   8.886e-08        1.203e-04       -1.627e-04        
                   1.337e+03        9.040e+02        2.500e+01        
                  1                 
 2483              4.977e-08        4.977e-08        9.065e-08        
                   9.065e-08        1.232e-04       -1.665e-04        
                   1.368e+03        9.250e+02        2.500e+01        
                  1                 
 2484              4.979e-08        4.979e-08        9.074e-08        
                   9.074e-08        1.233e-04       -1.666e-04        
                   1.369e+03        9.256e+02        2.500e+01        
                  1                 
 2485              4.994e-08        4.994e-08        8.904e-08        
                   8.904e-08        1.203e-04       -1.626e-04        
                   1.337e+03        9.034e+02        2.500e+01        
                  1                 
 2486              4.971e-08        4.971e-08        9.128e-08        
                   9.128e-08        1.243e-04       -1.680e-04        
                   1.381e+03        9.334e+02        2.500e+01        
                  1                 
 2487              5.017e-08        5.017e-08        9.004e-08        
                   9.004e-08        1.211e-04       -1.634e-04        
                   1.346e+03        9.079e+02        2.500e+01        
                  1                 
 2488              4.982e-08        4.982e-08        9.040e-08        
                   9.040e-08        1.227e-04       -1.658e-04        
                   1.363e+03        9.212e+02        2.500e+01        
                  1                 
 2489              5.009e-08        5.009e-08        8.955e-08        
                   8.955e-08        1.207e-04       -1.629e-04        
                   1.340e+03        9.049e+02        2.500e+01        
                  1                 
 2490              4.970e-08        4.970e-08        8.932e-08        
                   8.932e-08        1.215e-04       -1.643e-04        
                   1.349e+03        9.129e+02        2.500e+01        
                  1                 
 2491              5.039e-08        5.039e-08        8.874e-08        
                   8.874e-08        1.186e-04       -1.600e-04        
                   1.318e+03        8.886e+02        2.500e+01        
                  1                 
 2492              4.996e-08        4.996e-08        9.100e-08        
                   9.100e-08        1.231e-04       -1.662e-04        
                   1.368e+03        9.236e+02        2.500e+01        
                  1                 
 2493              4.993e-08        4.993e-08        8.942e-08        
                   8.942e-08        1.209e-04       -1.634e-04        
                   1.343e+03        9.078e+02        2.500e+01        
                  1                 
 2494              5.017e-08        5.017e-08        8.978e-08        
                   8.978e-08        1.208e-04       -1.629e-04        
                   1.341e+03        9.052e+02        2.500e+01        
                  1                 
 2495              4.979e-08        4.979e-08        8.983e-08        
                   8.983e-08        1.219e-04       -1.649e-04        
                   1.354e+03        9.158e+02        2.500e+01        
                  1                 
 2496              5.009e-08        5.009e-08        9.028e-08        
                   9.028e-08        1.217e-04       -1.643e-04        
                   1.352e+03        9.125e+02        2.500e+01        
                  1                 
 2497              5.016e-08        5.016e-08        8.996e-08        
                   8.996e-08        1.211e-04       -1.633e-04        
                   1.345e+03        9.074e+02        2.500e+01        
                  1                 
 2498              5.010e-08        5.010e-08        8.998e-08        
                   8.998e-08        1.212e-04       -1.636e-04        
                   1.347e+03        9.091e+02        2.500e+01        
                  1                 
 2499              4.945e-08        4.945e-08        8.980e-08        
                   8.980e-08        1.229e-04       -1.665e-04        
                   1.365e+03        9.247e+02        2.500e+01        
                  1                 
 2500              4.968e-08        4.968e-08        8.878e-08        
                   8.878e-08        1.207e-04       -1.634e-04        
                   1.341e+03        9.076e+02        2.500e+01        
                  1                 
