$DATA1 SOURCE='HSPICE' VERSION='I-2013.12-SP1 64-BIT'
.TITLE 'stst'
 id_nmos          id_pmos          ion_nmos         ion_pmos          
 temper           alter#            
  7.206e-05       -1.009e-04        8.006e+02        5.607e+02        
  1.250e+02       11                
