$DATA1 SOURCE='HSPICE' VERSION='I-2013.12-SP1 64-BIT'
.TITLE 'fsfs'
 id_nmos          id_pmos          ion_nmos         ion_pmos          
 temper           alter#            
  1.365e-04       -1.741e-04        1.516e+03        9.669e+02        
 -4.500e+01       61                
