***** HSPICE -- I-2013.12-SP1 64-BIT (Feb 25 2014) RHEL64 ******
 Input File: stimulus.sp
 lic:
 lic: FLEXlm: v10.9.8
 lic: USER:   2015104069           HOSTNAME: vlsi-dist.khu.ac.kr
 lic: HOSTID: 382c4ac7d475         PID:      39036
 lic: Using FLEXlm license file:
 lic: 27020@163.180.118.27
 lic: Checkout 1 hspice
 lic: License/Maintenance for hspice will expire on 30-jun-2020/2018.09
 lic: 1(in_use)/7(total) FLOATING license(s) on SERVER 27020@163.180.118.27
 lic:
 init: begin read circuit files,  cpu clock=  9.57E-01
       option search = /Tools/Synopsys/Hspice/hspice/parts/ad
       option search = /Tools/Synopsys/Hspice/hspice/parts/ad
       option search = /Tools/Synopsys/Hspice/hspice/parts/behave
       option search = /Tools/Synopsys/Hspice/hspice/parts/bjt
       option search = /Tools/Synopsys/Hspice/hspice/parts/burr_brn
       option search = /Tools/Synopsys/Hspice/hspice/parts/comlinear
       option search = /Tools/Synopsys/Hspice/hspice/parts/dio
       option search = /Tools/Synopsys/Hspice/hspice/parts/fet
       option search = /Tools/Synopsys/Hspice/hspice/parts/lin_tech
       option search = /Tools/Synopsys/Hspice/hspice/parts/pci
       option search = /Tools/Synopsys/Hspice/hspice/parts/signet
       option search = /Tools/Synopsys/Hspice/hspice/parts/ti
       option search = /Tools/Synopsys/Hspice/hspice/parts/tline
       option search = /Tools/Synopsys/Hspice/hspice/parts/xilinx
       option runlvl
       option delmax =    1.000E-09
       option artist =     2.00
       option ingold =     2.00
       option parhier = local
       option psf =     2.00
 init: end read circuit files,  cpu clock=  9.60E-01 peak memory=       172 mb
 init: begin check errors,  cpu clock=  9.60E-01
 init: end check errors,  cpu clock=  9.64E-01 peak memory=       173 mb
 init: begin setup matrix, pivot=     0 cpu clock=  9.64E-01
       establish matrix -- done,  cpu clock=  9.64E-01 peak memory=       173 mb
       re-order matrix -- done,  cpu clock=  9.64E-01 peak memory=       173 mb
 init: end setup matrix,  cpu clock=  9.65E-01 peak memory=       173 mb
 dcop: begin dcop,  cpu clock=  9.65E-01
 dcop: end dcop,  cpu clock=  9.66E-01 peak memory=       173 mb  tot_iter=       8
 sweep: tran tran0    begin, stop_t=  2.00E-08 #sweeps= 201 cpu clock=  9.67E-01
 tran: time= 2.2052E-09 tot_iter=      10 conv_iter=       5 cpu clock= 9.67E-01
 tran: time= 4.2052E-09 tot_iter=      14 conv_iter=       7 cpu clock= 9.67E-01
 tran: time= 6.2052E-09 tot_iter=      18 conv_iter=       9 cpu clock= 9.67E-01
 tran: time= 8.2052E-09 tot_iter=      22 conv_iter=      11 cpu clock= 9.68E-01
 tran: time= 1.0205E-08 tot_iter=      26 conv_iter=      13 cpu clock= 9.68E-01
 tran: time= 1.2205E-08 tot_iter=      30 conv_iter=      15 cpu clock= 9.68E-01
 tran: time= 1.4205E-08 tot_iter=      34 conv_iter=      17 cpu clock= 9.68E-01
 tran: time= 1.6205E-08 tot_iter=      38 conv_iter=      19 cpu clock= 9.68E-01
 tran: time= 1.8205E-08 tot_iter=      42 conv_iter=      21 cpu clock= 9.68E-01
 tran: time= 2.0000E-08 tot_iter=      46 conv_iter=      23 cpu clock= 9.68E-01
 sweep: tran tran0    end,  cpu clock=  9.68E-01 peak memory=       173 mb
>info:         ***** hspice job concluded
 init: begin read circuit files,  cpu clock=  9.72E-01
       option search = /Tools/Synopsys/Hspice/hspice/parts/ad
       option search = /Tools/Synopsys/Hspice/hspice/parts/ad
       option search = /Tools/Synopsys/Hspice/hspice/parts/behave
       option search = /Tools/Synopsys/Hspice/hspice/parts/bjt
       option search = /Tools/Synopsys/Hspice/hspice/parts/burr_brn
       option search = /Tools/Synopsys/Hspice/hspice/parts/comlinear
       option search = /Tools/Synopsys/Hspice/hspice/parts/dio
       option search = /Tools/Synopsys/Hspice/hspice/parts/fet
       option search = /Tools/Synopsys/Hspice/hspice/parts/lin_tech
       option search = /Tools/Synopsys/Hspice/hspice/parts/pci
       option search = /Tools/Synopsys/Hspice/hspice/parts/signet
       option search = /Tools/Synopsys/Hspice/hspice/parts/ti
       option search = /Tools/Synopsys/Hspice/hspice/parts/tline
       option search = /Tools/Synopsys/Hspice/hspice/parts/xilinx
       option runlvl
       option delmax =    1.000E-09
       option artist =     2.00
       option ingold =     2.00
       option parhier = local
       option psf =     2.00
 init: end read circuit files,  cpu clock=  9.75E-01 peak memory=       173 mb
 init: begin check errors,  cpu clock=  9.75E-01
 init: end check errors,  cpu clock=  9.77E-01 peak memory=       173 mb
 init: begin setup matrix, pivot=     0 cpu clock=  9.77E-01
       establish matrix -- done,  cpu clock=  9.77E-01 peak memory=       173 mb
       re-order matrix -- done,  cpu clock=  9.77E-01 peak memory=       173 mb
 init: end setup matrix,  cpu clock=  9.78E-01 peak memory=       173 mb
 dcop: begin dcop,  cpu clock=  9.78E-01
 dcop: end dcop,  cpu clock=  9.79E-01 peak memory=       173 mb  tot_iter=       8
 sweep: tran tran0    begin, stop_t=  2.00E-08 #sweeps= 201 cpu clock=  9.79E-01
 tran: time= 2.2052E-09 tot_iter=      10 conv_iter=       5 cpu clock= 9.79E-01
 tran: time= 4.2052E-09 tot_iter=      14 conv_iter=       7 cpu clock= 9.80E-01
 tran: time= 6.2052E-09 tot_iter=      18 conv_iter=       9 cpu clock= 9.80E-01
 tran: time= 8.2052E-09 tot_iter=      22 conv_iter=      11 cpu clock= 9.80E-01
 tran: time= 1.0000E-08 tot_iter=      26 conv_iter=      13 cpu clock= 9.80E-01
 tran: time= 1.2519E-08 tot_iter=     112 conv_iter=      45 cpu clock= 9.84E-01
 tran: time= 1.4519E-08 tot_iter=     117 conv_iter=      47 cpu clock= 9.85E-01
 tran: time= 1.6519E-08 tot_iter=     121 conv_iter=      49 cpu clock= 9.85E-01
 tran: time= 1.8519E-08 tot_iter=     125 conv_iter=      51 cpu clock= 9.85E-01
 tran: time= 2.0000E-08 tot_iter=     129 conv_iter=      53 cpu clock= 9.85E-01
 sweep: tran tran0    end,  cpu clock=  9.85E-01 peak memory=       173 mb
>info:         ***** hspice job concluded
 init: begin read circuit files,  cpu clock=  9.89E-01
       option search = /Tools/Synopsys/Hspice/hspice/parts/ad
       option search = /Tools/Synopsys/Hspice/hspice/parts/ad
       option search = /Tools/Synopsys/Hspice/hspice/parts/behave
       option search = /Tools/Synopsys/Hspice/hspice/parts/bjt
       option search = /Tools/Synopsys/Hspice/hspice/parts/burr_brn
       option search = /Tools/Synopsys/Hspice/hspice/parts/comlinear
       option search = /Tools/Synopsys/Hspice/hspice/parts/dio
       option search = /Tools/Synopsys/Hspice/hspice/parts/fet
       option search = /Tools/Synopsys/Hspice/hspice/parts/lin_tech
       option search = /Tools/Synopsys/Hspice/hspice/parts/pci
       option search = /Tools/Synopsys/Hspice/hspice/parts/signet
       option search = /Tools/Synopsys/Hspice/hspice/parts/ti
       option search = /Tools/Synopsys/Hspice/hspice/parts/tline
       option search = /Tools/Synopsys/Hspice/hspice/parts/xilinx
       option runlvl
       option delmax =    1.000E-09
       option artist =     2.00
       option ingold =     2.00
       option parhier = local
       option psf =     2.00
 init: end read circuit files,  cpu clock=  9.91E-01 peak memory=       173 mb
 init: begin check errors,  cpu clock=  9.91E-01
 init: end check errors,  cpu clock=  9.94E-01 peak memory=       173 mb
 init: begin setup matrix, pivot=     0 cpu clock=  9.94E-01
       establish matrix -- done,  cpu clock=  9.94E-01 peak memory=       173 mb
       re-order matrix -- done,  cpu clock=  9.94E-01 peak memory=       173 mb
 init: end setup matrix,  cpu clock=  9.94E-01 peak memory=       173 mb
 dcop: begin dcop,  cpu clock=  9.95E-01
 dcop: end dcop,  cpu clock=  9.96E-01 peak memory=       173 mb  tot_iter=      13
 sweep: tran tran0    begin, stop_t=  2.00E-08 #sweeps= 201 cpu clock=  9.96E-01
 tran: time= 2.2052E-09 tot_iter=      10 conv_iter=       5 cpu clock= 9.96E-01
 tran: time= 4.2052E-09 tot_iter=      14 conv_iter=       7 cpu clock= 9.97E-01
 tran: time= 6.2052E-09 tot_iter=      18 conv_iter=       9 cpu clock= 9.97E-01
 tran: time= 8.2052E-09 tot_iter=      22 conv_iter=      11 cpu clock= 9.97E-01
 tran: time= 1.0000E-08 tot_iter=      26 conv_iter=      13 cpu clock= 9.97E-01
 tran: time= 1.2894E-08 tot_iter=     109 conv_iter=      44 cpu clock= 1.00E+00
 tran: time= 1.4894E-08 tot_iter=     113 conv_iter=      46 cpu clock= 1.00E+00
 tran: time= 1.6894E-08 tot_iter=     117 conv_iter=      48 cpu clock= 1.00E+00
 tran: time= 1.8894E-08 tot_iter=     121 conv_iter=      50 cpu clock= 1.00E+00
 tran: time= 2.0000E-08 tot_iter=     125 conv_iter=      52 cpu clock= 1.00E+00
 sweep: tran tran0    end,  cpu clock=  1.00E+00 peak memory=       173 mb
>info:         ***** hspice job concluded
 init: begin read circuit files,  cpu clock=  1.01E+00
       option search = /Tools/Synopsys/Hspice/hspice/parts/ad
       option search = /Tools/Synopsys/Hspice/hspice/parts/ad
       option search = /Tools/Synopsys/Hspice/hspice/parts/behave
       option search = /Tools/Synopsys/Hspice/hspice/parts/bjt
       option search = /Tools/Synopsys/Hspice/hspice/parts/burr_brn
       option search = /Tools/Synopsys/Hspice/hspice/parts/comlinear
       option search = /Tools/Synopsys/Hspice/hspice/parts/dio
       option search = /Tools/Synopsys/Hspice/hspice/parts/fet
       option search = /Tools/Synopsys/Hspice/hspice/parts/lin_tech
       option search = /Tools/Synopsys/Hspice/hspice/parts/pci
       option search = /Tools/Synopsys/Hspice/hspice/parts/signet
       option search = /Tools/Synopsys/Hspice/hspice/parts/ti
       option search = /Tools/Synopsys/Hspice/hspice/parts/tline
       option search = /Tools/Synopsys/Hspice/hspice/parts/xilinx
       option runlvl
       option delmax =    1.000E-09
       option artist =     2.00
       option ingold =     2.00
       option parhier = local
       option psf =     2.00
 init: end read circuit files,  cpu clock=  1.01E+00 peak memory=       173 mb
 init: begin check errors,  cpu clock=  1.01E+00
 init: end check errors,  cpu clock=  1.01E+00 peak memory=       173 mb
 init: begin setup matrix, pivot=     0 cpu clock=  1.01E+00
       establish matrix -- done,  cpu clock=  1.01E+00 peak memory=       173 mb
       re-order matrix -- done,  cpu clock=  1.01E+00 peak memory=       173 mb
 init: end setup matrix,  cpu clock=  1.01E+00 peak memory=       173 mb
 dcop: begin dcop,  cpu clock=  1.01E+00
 dcop: end dcop,  cpu clock=  1.01E+00 peak memory=       173 mb  tot_iter=      13
 sweep: tran tran0    begin, stop_t=  2.00E-08 #sweeps= 201 cpu clock=  1.01E+00
 tran: time= 2.2052E-09 tot_iter=      10 conv_iter=       5 cpu clock= 1.01E+00
 tran: time= 4.2052E-09 tot_iter=      14 conv_iter=       7 cpu clock= 1.01E+00
 tran: time= 6.2052E-09 tot_iter=      18 conv_iter=       9 cpu clock= 1.01E+00
 tran: time= 8.2052E-09 tot_iter=      22 conv_iter=      11 cpu clock= 1.01E+00
 tran: time= 1.0205E-08 tot_iter=      26 conv_iter=      13 cpu clock= 1.01E+00
 tran: time= 1.2205E-08 tot_iter=      30 conv_iter=      15 cpu clock= 1.01E+00
 tran: time= 1.4205E-08 tot_iter=      34 conv_iter=      17 cpu clock= 1.01E+00
 tran: time= 1.6205E-08 tot_iter=      38 conv_iter=      19 cpu clock= 1.01E+00
 tran: time= 1.8205E-08 tot_iter=      42 conv_iter=      21 cpu clock= 1.02E+00
 tran: time= 2.0000E-08 tot_iter=      46 conv_iter=      23 cpu clock= 1.02E+00
 sweep: tran tran0    end,  cpu clock=  1.02E+00 peak memory=       173 mb
>info:         ***** hspice job concluded
 init: begin read circuit files,  cpu clock=  1.02E+00
       option search = /Tools/Synopsys/Hspice/hspice/parts/ad
       option search = /Tools/Synopsys/Hspice/hspice/parts/ad
       option search = /Tools/Synopsys/Hspice/hspice/parts/behave
       option search = /Tools/Synopsys/Hspice/hspice/parts/bjt
       option search = /Tools/Synopsys/Hspice/hspice/parts/burr_brn
       option search = /Tools/Synopsys/Hspice/hspice/parts/comlinear
       option search = /Tools/Synopsys/Hspice/hspice/parts/dio
       option search = /Tools/Synopsys/Hspice/hspice/parts/fet
       option search = /Tools/Synopsys/Hspice/hspice/parts/lin_tech
       option search = /Tools/Synopsys/Hspice/hspice/parts/pci
       option search = /Tools/Synopsys/Hspice/hspice/parts/signet
       option search = /Tools/Synopsys/Hspice/hspice/parts/ti
       option search = /Tools/Synopsys/Hspice/hspice/parts/tline
       option search = /Tools/Synopsys/Hspice/hspice/parts/xilinx
       option runlvl
       option delmax =    1.000E-09
       option artist =     2.00
       option ingold =     2.00
       option parhier = local
       option psf =     2.00
 init: end read circuit files,  cpu clock=  1.02E+00 peak memory=       173 mb
 init: begin check errors,  cpu clock=  1.02E+00
 init: end check errors,  cpu clock=  1.02E+00 peak memory=       173 mb
 init: begin setup matrix, pivot=     0 cpu clock=  1.02E+00
       establish matrix -- done,  cpu clock=  1.02E+00 peak memory=       173 mb
       re-order matrix -- done,  cpu clock=  1.02E+00 peak memory=       173 mb
 init: end setup matrix,  cpu clock=  1.02E+00 peak memory=       173 mb
 dcop: begin dcop,  cpu clock=  1.02E+00
 dcop: end dcop,  cpu clock=  1.03E+00 peak memory=       173 mb  tot_iter=       8
 sweep: tran tran0    begin, stop_t=  2.00E-08 #sweeps= 201 cpu clock=  1.03E+00
 tran: time= 2.2052E-09 tot_iter=      10 conv_iter=       5 cpu clock= 1.03E+00
 tran: time= 4.2052E-09 tot_iter=      14 conv_iter=       7 cpu clock= 1.03E+00
 tran: time= 6.2052E-09 tot_iter=      18 conv_iter=       9 cpu clock= 1.03E+00
 tran: time= 8.2052E-09 tot_iter=      22 conv_iter=      11 cpu clock= 1.03E+00
 tran: time= 1.0000E-08 tot_iter=      26 conv_iter=      13 cpu clock= 1.03E+00
 tran: time= 1.2114E-08 tot_iter=      97 conv_iter=      41 cpu clock= 1.03E+00
 tran: time= 1.4114E-08 tot_iter=     101 conv_iter=      43 cpu clock= 1.03E+00
 tran: time= 1.6114E-08 tot_iter=     105 conv_iter=      45 cpu clock= 1.03E+00
 tran: time= 1.8114E-08 tot_iter=     109 conv_iter=      47 cpu clock= 1.03E+00
 tran: time= 2.0000E-08 tot_iter=     113 conv_iter=      49 cpu clock= 1.03E+00
 sweep: tran tran0    end,  cpu clock=  1.03E+00 peak memory=       173 mb
>info:         ***** hspice job concluded
 init: begin read circuit files,  cpu clock=  1.03E+00
       option search = /Tools/Synopsys/Hspice/hspice/parts/ad
       option search = /Tools/Synopsys/Hspice/hspice/parts/ad
       option search = /Tools/Synopsys/Hspice/hspice/parts/behave
       option search = /Tools/Synopsys/Hspice/hspice/parts/bjt
       option search = /Tools/Synopsys/Hspice/hspice/parts/burr_brn
       option search = /Tools/Synopsys/Hspice/hspice/parts/comlinear
       option search = /Tools/Synopsys/Hspice/hspice/parts/dio
       option search = /Tools/Synopsys/Hspice/hspice/parts/fet
       option search = /Tools/Synopsys/Hspice/hspice/parts/lin_tech
       option search = /Tools/Synopsys/Hspice/hspice/parts/pci
       option search = /Tools/Synopsys/Hspice/hspice/parts/signet
       option search = /Tools/Synopsys/Hspice/hspice/parts/ti
       option search = /Tools/Synopsys/Hspice/hspice/parts/tline
       option search = /Tools/Synopsys/Hspice/hspice/parts/xilinx
       option runlvl
       option delmax =    1.000E-09
       option artist =     2.00
       option ingold =     2.00
       option parhier = local
       option psf =     2.00
 init: end read circuit files,  cpu clock=  1.04E+00 peak memory=       173 mb
 init: begin check errors,  cpu clock=  1.04E+00
 init: end check errors,  cpu clock=  1.04E+00 peak memory=       173 mb
 init: begin setup matrix, pivot=     0 cpu clock=  1.04E+00
       establish matrix -- done,  cpu clock=  1.04E+00 peak memory=       173 mb
       re-order matrix -- done,  cpu clock=  1.04E+00 peak memory=       173 mb
 init: end setup matrix,  cpu clock=  1.04E+00 peak memory=       173 mb
 dcop: begin dcop,  cpu clock=  1.04E+00
 dcop: end dcop,  cpu clock=  1.04E+00 peak memory=       173 mb  tot_iter=       8
 sweep: tran tran0    begin, stop_t=  2.00E-08 #sweeps= 201 cpu clock=  1.04E+00
 tran: time= 2.2052E-09 tot_iter=      10 conv_iter=       5 cpu clock= 1.04E+00
 tran: time= 4.2052E-09 tot_iter=      14 conv_iter=       7 cpu clock= 1.04E+00
 tran: time= 6.2052E-09 tot_iter=      18 conv_iter=       9 cpu clock= 1.04E+00
 tran: time= 8.2052E-09 tot_iter=      22 conv_iter=      11 cpu clock= 1.04E+00
 tran: time= 1.0000E-08 tot_iter=      26 conv_iter=      13 cpu clock= 1.04E+00
 tran: time= 1.2921E-08 tot_iter=      90 conv_iter=      40 cpu clock= 1.05E+00
 tran: time= 1.4921E-08 tot_iter=      94 conv_iter=      42 cpu clock= 1.05E+00
 tran: time= 1.6921E-08 tot_iter=      98 conv_iter=      44 cpu clock= 1.05E+00
 tran: time= 1.8921E-08 tot_iter=     102 conv_iter=      46 cpu clock= 1.05E+00
 tran: time= 2.0000E-08 tot_iter=     104 conv_iter=      47 cpu clock= 1.05E+00
 sweep: tran tran0    end,  cpu clock=  1.05E+00 peak memory=       173 mb
>info:         ***** hspice job concluded
 init: begin read circuit files,  cpu clock=  1.05E+00
       option search = /Tools/Synopsys/Hspice/hspice/parts/ad
       option search = /Tools/Synopsys/Hspice/hspice/parts/ad
       option search = /Tools/Synopsys/Hspice/hspice/parts/behave
       option search = /Tools/Synopsys/Hspice/hspice/parts/bjt
       option search = /Tools/Synopsys/Hspice/hspice/parts/burr_brn
       option search = /Tools/Synopsys/Hspice/hspice/parts/comlinear
       option search = /Tools/Synopsys/Hspice/hspice/parts/dio
       option search = /Tools/Synopsys/Hspice/hspice/parts/fet
       option search = /Tools/Synopsys/Hspice/hspice/parts/lin_tech
       option search = /Tools/Synopsys/Hspice/hspice/parts/pci
       option search = /Tools/Synopsys/Hspice/hspice/parts/signet
       option search = /Tools/Synopsys/Hspice/hspice/parts/ti
       option search = /Tools/Synopsys/Hspice/hspice/parts/tline
       option search = /Tools/Synopsys/Hspice/hspice/parts/xilinx
       option runlvl
       option delmax =    1.000E-09
       option artist =     2.00
       option ingold =     2.00
       option parhier = local
       option psf =     2.00
 init: end read circuit files,  cpu clock=  1.05E+00 peak memory=       173 mb
 init: begin check errors,  cpu clock=  1.05E+00
 init: end check errors,  cpu clock=  1.05E+00 peak memory=       173 mb
 init: begin setup matrix, pivot=     0 cpu clock=  1.05E+00
       establish matrix -- done,  cpu clock=  1.05E+00 peak memory=       173 mb
       re-order matrix -- done,  cpu clock=  1.06E+00 peak memory=       173 mb
 init: end setup matrix,  cpu clock=  1.06E+00 peak memory=       173 mb
 dcop: begin dcop,  cpu clock=  1.06E+00
 dcop: end dcop,  cpu clock=  1.06E+00 peak memory=       173 mb  tot_iter=      13
 sweep: tran tran0    begin, stop_t=  2.00E-08 #sweeps= 201 cpu clock=  1.06E+00
 tran: time= 2.2052E-09 tot_iter=      10 conv_iter=       5 cpu clock= 1.06E+00
 tran: time= 4.2052E-09 tot_iter=      14 conv_iter=       7 cpu clock= 1.06E+00
 tran: time= 6.2052E-09 tot_iter=      18 conv_iter=       9 cpu clock= 1.06E+00
 tran: time= 8.2052E-09 tot_iter=      22 conv_iter=      11 cpu clock= 1.06E+00
 tran: time= 1.0000E-08 tot_iter=      26 conv_iter=      13 cpu clock= 1.06E+00
 tran: time= 1.2798E-08 tot_iter=      85 conv_iter=      37 cpu clock= 1.06E+00
 tran: time= 1.4798E-08 tot_iter=      89 conv_iter=      39 cpu clock= 1.06E+00
 tran: time= 1.6798E-08 tot_iter=      93 conv_iter=      41 cpu clock= 1.06E+00
 tran: time= 1.8798E-08 tot_iter=      97 conv_iter=      43 cpu clock= 1.06E+00
 tran: time= 2.0000E-08 tot_iter=     101 conv_iter=      45 cpu clock= 1.06E+00
 sweep: tran tran0    end,  cpu clock=  1.06E+00 peak memory=       173 mb
>info:         ***** hspice job concluded
 init: begin read circuit files,  cpu clock=  1.07E+00
       option search = /Tools/Synopsys/Hspice/hspice/parts/ad
       option search = /Tools/Synopsys/Hspice/hspice/parts/ad
       option search = /Tools/Synopsys/Hspice/hspice/parts/behave
       option search = /Tools/Synopsys/Hspice/hspice/parts/bjt
       option search = /Tools/Synopsys/Hspice/hspice/parts/burr_brn
       option search = /Tools/Synopsys/Hspice/hspice/parts/comlinear
       option search = /Tools/Synopsys/Hspice/hspice/parts/dio
       option search = /Tools/Synopsys/Hspice/hspice/parts/fet
       option search = /Tools/Synopsys/Hspice/hspice/parts/lin_tech
       option search = /Tools/Synopsys/Hspice/hspice/parts/pci
       option search = /Tools/Synopsys/Hspice/hspice/parts/signet
       option search = /Tools/Synopsys/Hspice/hspice/parts/ti
       option search = /Tools/Synopsys/Hspice/hspice/parts/tline
       option search = /Tools/Synopsys/Hspice/hspice/parts/xilinx
       option runlvl
       option delmax =    1.000E-09
       option artist =     2.00
       option ingold =     2.00
       option parhier = local
       option psf =     2.00
 init: end read circuit files,  cpu clock=  1.07E+00 peak memory=       173 mb
 init: begin check errors,  cpu clock=  1.07E+00
 init: end check errors,  cpu clock=  1.07E+00 peak memory=       173 mb
 init: begin setup matrix, pivot=     0 cpu clock=  1.07E+00
       establish matrix -- done,  cpu clock=  1.07E+00 peak memory=       173 mb
       re-order matrix -- done,  cpu clock=  1.07E+00 peak memory=       173 mb
 init: end setup matrix,  cpu clock=  1.07E+00 peak memory=       173 mb
 dcop: begin dcop,  cpu clock=  1.07E+00
 dcop: end dcop,  cpu clock=  1.07E+00 peak memory=       173 mb  tot_iter=      13
 sweep: tran tran0    begin, stop_t=  2.00E-08 #sweeps= 201 cpu clock=  1.07E+00
 tran: time= 2.2052E-09 tot_iter=      10 conv_iter=       5 cpu clock= 1.07E+00
 tran: time= 4.2052E-09 tot_iter=      14 conv_iter=       7 cpu clock= 1.07E+00
 tran: time= 6.2052E-09 tot_iter=      18 conv_iter=       9 cpu clock= 1.07E+00
 tran: time= 8.2052E-09 tot_iter=      22 conv_iter=      11 cpu clock= 1.07E+00
 tran: time= 1.0000E-08 tot_iter=      26 conv_iter=      13 cpu clock= 1.07E+00
 tran: time= 1.2723E-08 tot_iter=     108 conv_iter=      45 cpu clock= 1.08E+00
 tran: time= 1.4723E-08 tot_iter=     112 conv_iter=      47 cpu clock= 1.08E+00
 tran: time= 1.6723E-08 tot_iter=     116 conv_iter=      49 cpu clock= 1.08E+00
 tran: time= 1.8723E-08 tot_iter=     120 conv_iter=      51 cpu clock= 1.08E+00
 tran: time= 2.0000E-08 tot_iter=     124 conv_iter=      53 cpu clock= 1.08E+00
 sweep: tran tran0    end,  cpu clock=  1.08E+00 peak memory=       173 mb
>info:         ***** hspice job concluded
 init: begin read circuit files,  cpu clock=  1.08E+00
       option search = /Tools/Synopsys/Hspice/hspice/parts/ad
       option search = /Tools/Synopsys/Hspice/hspice/parts/ad
       option search = /Tools/Synopsys/Hspice/hspice/parts/behave
       option search = /Tools/Synopsys/Hspice/hspice/parts/bjt
       option search = /Tools/Synopsys/Hspice/hspice/parts/burr_brn
       option search = /Tools/Synopsys/Hspice/hspice/parts/comlinear
       option search = /Tools/Synopsys/Hspice/hspice/parts/dio
       option search = /Tools/Synopsys/Hspice/hspice/parts/fet
       option search = /Tools/Synopsys/Hspice/hspice/parts/lin_tech
       option search = /Tools/Synopsys/Hspice/hspice/parts/pci
       option search = /Tools/Synopsys/Hspice/hspice/parts/signet
       option search = /Tools/Synopsys/Hspice/hspice/parts/ti
       option search = /Tools/Synopsys/Hspice/hspice/parts/tline
       option search = /Tools/Synopsys/Hspice/hspice/parts/xilinx
       option runlvl
       option delmax =    1.000E-09
       option artist =     2.00
       option ingold =     2.00
       option parhier = local
       option psf =     2.00
 init: end read circuit files,  cpu clock=  1.08E+00 peak memory=       173 mb
 init: begin check errors,  cpu clock=  1.08E+00
 init: end check errors,  cpu clock=  1.09E+00 peak memory=       173 mb
 init: begin setup matrix, pivot=     0 cpu clock=  1.09E+00
       establish matrix -- done,  cpu clock=  1.09E+00 peak memory=       173 mb
       re-order matrix -- done,  cpu clock=  1.09E+00 peak memory=       173 mb
 init: end setup matrix,  cpu clock=  1.09E+00 peak memory=       173 mb
 dcop: begin dcop,  cpu clock=  1.09E+00
 dcop: end dcop,  cpu clock=  1.09E+00 peak memory=       173 mb  tot_iter=       5
 sweep: tran tran0    begin, stop_t=  2.00E-08 #sweeps= 201 cpu clock=  1.09E+00
 tran: time= 2.2052E-09 tot_iter=      10 conv_iter=       5 cpu clock= 1.09E+00
 tran: time= 4.2052E-09 tot_iter=      14 conv_iter=       7 cpu clock= 1.09E+00
 tran: time= 6.2052E-09 tot_iter=      18 conv_iter=       9 cpu clock= 1.09E+00
 tran: time= 8.2052E-09 tot_iter=      22 conv_iter=      11 cpu clock= 1.09E+00
 tran: time= 1.0000E-08 tot_iter=      26 conv_iter=      13 cpu clock= 1.09E+00
 tran: time= 1.2868E-08 tot_iter=     110 conv_iter=      44 cpu clock= 1.09E+00
 tran: time= 1.4868E-08 tot_iter=     114 conv_iter=      46 cpu clock= 1.09E+00
 tran: time= 1.6868E-08 tot_iter=     118 conv_iter=      48 cpu clock= 1.09E+00
 tran: time= 1.8868E-08 tot_iter=     122 conv_iter=      50 cpu clock= 1.09E+00
 tran: time= 2.0000E-08 tot_iter=     126 conv_iter=      52 cpu clock= 1.10E+00
 sweep: tran tran0    end,  cpu clock=  1.10E+00 peak memory=       173 mb
>info:         ***** hspice job concluded
 init: begin read circuit files,  cpu clock=  1.10E+00
       option search = /Tools/Synopsys/Hspice/hspice/parts/ad
       option search = /Tools/Synopsys/Hspice/hspice/parts/ad
       option search = /Tools/Synopsys/Hspice/hspice/parts/behave
       option search = /Tools/Synopsys/Hspice/hspice/parts/bjt
       option search = /Tools/Synopsys/Hspice/hspice/parts/burr_brn
       option search = /Tools/Synopsys/Hspice/hspice/parts/comlinear
       option search = /Tools/Synopsys/Hspice/hspice/parts/dio
       option search = /Tools/Synopsys/Hspice/hspice/parts/fet
       option search = /Tools/Synopsys/Hspice/hspice/parts/lin_tech
       option search = /Tools/Synopsys/Hspice/hspice/parts/pci
       option search = /Tools/Synopsys/Hspice/hspice/parts/signet
       option search = /Tools/Synopsys/Hspice/hspice/parts/ti
       option search = /Tools/Synopsys/Hspice/hspice/parts/tline
       option search = /Tools/Synopsys/Hspice/hspice/parts/xilinx
       option runlvl
       option delmax =    1.000E-09
       option artist =     2.00
       option ingold =     2.00
       option parhier = local
       option psf =     2.00
 init: end read circuit files,  cpu clock=  1.10E+00 peak memory=       173 mb
 init: begin check errors,  cpu clock=  1.10E+00
 init: end check errors,  cpu clock=  1.10E+00 peak memory=       173 mb
 init: begin setup matrix, pivot=     0 cpu clock=  1.10E+00
       establish matrix -- done,  cpu clock=  1.10E+00 peak memory=       173 mb
       re-order matrix -- done,  cpu clock=  1.10E+00 peak memory=       173 mb
 init: end setup matrix,  cpu clock=  1.10E+00 peak memory=       173 mb
 dcop: begin dcop,  cpu clock=  1.10E+00
 dcop: end dcop,  cpu clock=  1.11E+00 peak memory=       173 mb  tot_iter=       5
 sweep: tran tran0    begin, stop_t=  2.00E-08 #sweeps= 201 cpu clock=  1.11E+00
 tran: time= 2.2052E-09 tot_iter=      10 conv_iter=       5 cpu clock= 1.11E+00
 tran: time= 4.2052E-09 tot_iter=      14 conv_iter=       7 cpu clock= 1.11E+00
 tran: time= 6.2052E-09 tot_iter=      18 conv_iter=       9 cpu clock= 1.11E+00
 tran: time= 8.2052E-09 tot_iter=      22 conv_iter=      11 cpu clock= 1.11E+00
 tran: time= 1.0000E-08 tot_iter=      26 conv_iter=      13 cpu clock= 1.11E+00
 tran: time= 1.2781E-08 tot_iter=     104 conv_iter=      40 cpu clock= 1.11E+00
 tran: time= 1.4781E-08 tot_iter=     109 conv_iter=      42 cpu clock= 1.11E+00
 tran: time= 1.6781E-08 tot_iter=     113 conv_iter=      44 cpu clock= 1.11E+00
 tran: time= 1.8781E-08 tot_iter=     117 conv_iter=      46 cpu clock= 1.11E+00
 tran: time= 2.0000E-08 tot_iter=     121 conv_iter=      48 cpu clock= 1.11E+00
 sweep: tran tran0    end,  cpu clock=  1.11E+00 peak memory=       173 mb
>info:         ***** hspice job concluded
 init: begin read circuit files,  cpu clock=  1.11E+00
       option search = /Tools/Synopsys/Hspice/hspice/parts/ad
       option search = /Tools/Synopsys/Hspice/hspice/parts/ad
       option search = /Tools/Synopsys/Hspice/hspice/parts/behave
       option search = /Tools/Synopsys/Hspice/hspice/parts/bjt
       option search = /Tools/Synopsys/Hspice/hspice/parts/burr_brn
       option search = /Tools/Synopsys/Hspice/hspice/parts/comlinear
       option search = /Tools/Synopsys/Hspice/hspice/parts/dio
       option search = /Tools/Synopsys/Hspice/hspice/parts/fet
       option search = /Tools/Synopsys/Hspice/hspice/parts/lin_tech
       option search = /Tools/Synopsys/Hspice/hspice/parts/pci
       option search = /Tools/Synopsys/Hspice/hspice/parts/signet
       option search = /Tools/Synopsys/Hspice/hspice/parts/ti
       option search = /Tools/Synopsys/Hspice/hspice/parts/tline
       option search = /Tools/Synopsys/Hspice/hspice/parts/xilinx
       option runlvl
       option delmax =    1.000E-09
       option artist =     2.00
       option ingold =     2.00
       option parhier = local
       option psf =     2.00
 init: end read circuit files,  cpu clock=  1.12E+00 peak memory=       173 mb
 init: begin check errors,  cpu clock=  1.12E+00
 init: end check errors,  cpu clock=  1.12E+00 peak memory=       173 mb
 init: begin setup matrix, pivot=     0 cpu clock=  1.12E+00
       establish matrix -- done,  cpu clock=  1.12E+00 peak memory=       173 mb
       re-order matrix -- done,  cpu clock=  1.12E+00 peak memory=       173 mb
 init: end setup matrix,  cpu clock=  1.12E+00 peak memory=       173 mb
 dcop: begin dcop,  cpu clock=  1.12E+00
 dcop: end dcop,  cpu clock=  1.12E+00 peak memory=       173 mb  tot_iter=       5
 sweep: tran tran0    begin, stop_t=  2.00E-08 #sweeps= 201 cpu clock=  1.12E+00
 tran: time= 2.2052E-09 tot_iter=      10 conv_iter=       5 cpu clock= 1.12E+00
 tran: time= 4.2052E-09 tot_iter=      14 conv_iter=       7 cpu clock= 1.12E+00
 tran: time= 6.2052E-09 tot_iter=      18 conv_iter=       9 cpu clock= 1.12E+00
 tran: time= 8.2052E-09 tot_iter=      22 conv_iter=      11 cpu clock= 1.12E+00
 tran: time= 1.0000E-08 tot_iter=      26 conv_iter=      13 cpu clock= 1.12E+00
 tran: time= 1.2863E-08 tot_iter=      92 conv_iter=      39 cpu clock= 1.13E+00
 tran: time= 1.4863E-08 tot_iter=      96 conv_iter=      41 cpu clock= 1.13E+00
 tran: time= 1.6863E-08 tot_iter=     100 conv_iter=      43 cpu clock= 1.13E+00
 tran: time= 1.8863E-08 tot_iter=     104 conv_iter=      45 cpu clock= 1.13E+00
 tran: time= 2.0000E-08 tot_iter=     108 conv_iter=      47 cpu clock= 1.13E+00
 sweep: tran tran0    end,  cpu clock=  1.13E+00 peak memory=       173 mb
>info:         ***** hspice job concluded
 init: begin read circuit files,  cpu clock=  1.13E+00
       option search = /Tools/Synopsys/Hspice/hspice/parts/ad
       option search = /Tools/Synopsys/Hspice/hspice/parts/ad
       option search = /Tools/Synopsys/Hspice/hspice/parts/behave
       option search = /Tools/Synopsys/Hspice/hspice/parts/bjt
       option search = /Tools/Synopsys/Hspice/hspice/parts/burr_brn
       option search = /Tools/Synopsys/Hspice/hspice/parts/comlinear
       option search = /Tools/Synopsys/Hspice/hspice/parts/dio
       option search = /Tools/Synopsys/Hspice/hspice/parts/fet
       option search = /Tools/Synopsys/Hspice/hspice/parts/lin_tech
       option search = /Tools/Synopsys/Hspice/hspice/parts/pci
       option search = /Tools/Synopsys/Hspice/hspice/parts/signet
       option search = /Tools/Synopsys/Hspice/hspice/parts/ti
       option search = /Tools/Synopsys/Hspice/hspice/parts/tline
       option search = /Tools/Synopsys/Hspice/hspice/parts/xilinx
       option runlvl
       option delmax =    1.000E-09
       option artist =     2.00
       option ingold =     2.00
       option parhier = local
       option psf =     2.00
 init: end read circuit files,  cpu clock=  1.13E+00 peak memory=       173 mb
 init: begin check errors,  cpu clock=  1.13E+00
 init: end check errors,  cpu clock=  1.14E+00 peak memory=       173 mb
 init: begin setup matrix, pivot=     0 cpu clock=  1.14E+00
       establish matrix -- done,  cpu clock=  1.14E+00 peak memory=       173 mb
       re-order matrix -- done,  cpu clock=  1.14E+00 peak memory=       173 mb
 init: end setup matrix,  cpu clock=  1.14E+00 peak memory=       173 mb
 dcop: begin dcop,  cpu clock=  1.14E+00
 dcop: end dcop,  cpu clock=  1.14E+00 peak memory=       173 mb  tot_iter=       5
 sweep: tran tran0    begin, stop_t=  2.00E-08 #sweeps= 201 cpu clock=  1.14E+00
 tran: time= 2.2052E-09 tot_iter=      10 conv_iter=       5 cpu clock= 1.14E+00
 tran: time= 4.2052E-09 tot_iter=      14 conv_iter=       7 cpu clock= 1.14E+00
 tran: time= 6.2052E-09 tot_iter=      18 conv_iter=       9 cpu clock= 1.14E+00
 tran: time= 8.2052E-09 tot_iter=      22 conv_iter=      11 cpu clock= 1.14E+00
 tran: time= 1.0000E-08 tot_iter=      26 conv_iter=      13 cpu clock= 1.14E+00
 tran: time= 1.2759E-08 tot_iter=     106 conv_iter=      43 cpu clock= 1.14E+00
 tran: time= 1.4759E-08 tot_iter=     111 conv_iter=      45 cpu clock= 1.14E+00
 tran: time= 1.6759E-08 tot_iter=     115 conv_iter=      47 cpu clock= 1.14E+00
 tran: time= 1.8759E-08 tot_iter=     119 conv_iter=      49 cpu clock= 1.14E+00
 tran: time= 2.0000E-08 tot_iter=     123 conv_iter=      51 cpu clock= 1.14E+00
 sweep: tran tran0    end,  cpu clock=  1.14E+00 peak memory=       173 mb
>info:         ***** hspice job concluded
 init: begin read circuit files,  cpu clock=  1.15E+00
       option search = /Tools/Synopsys/Hspice/hspice/parts/ad
       option search = /Tools/Synopsys/Hspice/hspice/parts/ad
       option search = /Tools/Synopsys/Hspice/hspice/parts/behave
       option search = /Tools/Synopsys/Hspice/hspice/parts/bjt
       option search = /Tools/Synopsys/Hspice/hspice/parts/burr_brn
       option search = /Tools/Synopsys/Hspice/hspice/parts/comlinear
       option search = /Tools/Synopsys/Hspice/hspice/parts/dio
       option search = /Tools/Synopsys/Hspice/hspice/parts/fet
       option search = /Tools/Synopsys/Hspice/hspice/parts/lin_tech
       option search = /Tools/Synopsys/Hspice/hspice/parts/pci
       option search = /Tools/Synopsys/Hspice/hspice/parts/signet
       option search = /Tools/Synopsys/Hspice/hspice/parts/ti
       option search = /Tools/Synopsys/Hspice/hspice/parts/tline
       option search = /Tools/Synopsys/Hspice/hspice/parts/xilinx
       option runlvl
       option delmax =    1.000E-09
       option artist =     2.00
       option ingold =     2.00
       option parhier = local
       option psf =     2.00
 init: end read circuit files,  cpu clock=  1.15E+00 peak memory=       173 mb
 init: begin check errors,  cpu clock=  1.15E+00
 init: end check errors,  cpu clock=  1.15E+00 peak memory=       173 mb
 init: begin setup matrix, pivot=     0 cpu clock=  1.15E+00
       establish matrix -- done,  cpu clock=  1.15E+00 peak memory=       173 mb
       re-order matrix -- done,  cpu clock=  1.15E+00 peak memory=       173 mb
 init: end setup matrix,  cpu clock=  1.15E+00 peak memory=       173 mb
 dcop: begin dcop,  cpu clock=  1.15E+00
 dcop: end dcop,  cpu clock=  1.15E+00 peak memory=       173 mb  tot_iter=       5
 sweep: tran tran0    begin, stop_t=  2.00E-08 #sweeps= 201 cpu clock=  1.15E+00
 tran: time= 2.2052E-09 tot_iter=      10 conv_iter=       5 cpu clock= 1.15E+00
 tran: time= 4.2052E-09 tot_iter=      14 conv_iter=       7 cpu clock= 1.15E+00
 tran: time= 6.2052E-09 tot_iter=      18 conv_iter=       9 cpu clock= 1.15E+00
 tran: time= 8.2052E-09 tot_iter=      22 conv_iter=      11 cpu clock= 1.15E+00
 tran: time= 1.0205E-08 tot_iter=      26 conv_iter=      13 cpu clock= 1.15E+00
 tran: time= 1.2205E-08 tot_iter=      30 conv_iter=      15 cpu clock= 1.15E+00
 tran: time= 1.4205E-08 tot_iter=      34 conv_iter=      17 cpu clock= 1.16E+00
 tran: time= 1.6205E-08 tot_iter=      38 conv_iter=      19 cpu clock= 1.16E+00
 tran: time= 1.8205E-08 tot_iter=      42 conv_iter=      21 cpu clock= 1.16E+00
 tran: time= 2.0000E-08 tot_iter=      46 conv_iter=      23 cpu clock= 1.16E+00
 sweep: tran tran0    end,  cpu clock=  1.16E+00 peak memory=       173 mb
>info:         ***** hspice job concluded
 init: begin read circuit files,  cpu clock=  1.16E+00
       option search = /Tools/Synopsys/Hspice/hspice/parts/ad
       option search = /Tools/Synopsys/Hspice/hspice/parts/ad
       option search = /Tools/Synopsys/Hspice/hspice/parts/behave
       option search = /Tools/Synopsys/Hspice/hspice/parts/bjt
       option search = /Tools/Synopsys/Hspice/hspice/parts/burr_brn
       option search = /Tools/Synopsys/Hspice/hspice/parts/comlinear
       option search = /Tools/Synopsys/Hspice/hspice/parts/dio
       option search = /Tools/Synopsys/Hspice/hspice/parts/fet
       option search = /Tools/Synopsys/Hspice/hspice/parts/lin_tech
       option search = /Tools/Synopsys/Hspice/hspice/parts/pci
       option search = /Tools/Synopsys/Hspice/hspice/parts/signet
       option search = /Tools/Synopsys/Hspice/hspice/parts/ti
       option search = /Tools/Synopsys/Hspice/hspice/parts/tline
       option search = /Tools/Synopsys/Hspice/hspice/parts/xilinx
       option runlvl
       option delmax =    1.000E-09
       option artist =     2.00
       option ingold =     2.00
       option parhier = local
       option psf =     2.00
 init: end read circuit files,  cpu clock=  1.16E+00 peak memory=       173 mb
 init: begin check errors,  cpu clock=  1.16E+00
 init: end check errors,  cpu clock=  1.16E+00 peak memory=       173 mb
 init: begin setup matrix, pivot=     0 cpu clock=  1.16E+00
       establish matrix -- done,  cpu clock=  1.16E+00 peak memory=       173 mb
       re-order matrix -- done,  cpu clock=  1.16E+00 peak memory=       173 mb
 init: end setup matrix,  cpu clock=  1.16E+00 peak memory=       173 mb
 dcop: begin dcop,  cpu clock=  1.17E+00
 dcop: end dcop,  cpu clock=  1.17E+00 peak memory=       173 mb  tot_iter=       5
 sweep: tran tran0    begin, stop_t=  2.00E-08 #sweeps= 201 cpu clock=  1.17E+00
 tran: time= 2.2052E-09 tot_iter=      10 conv_iter=       5 cpu clock= 1.17E+00
 tran: time= 4.2052E-09 tot_iter=      14 conv_iter=       7 cpu clock= 1.17E+00
 tran: time= 6.2052E-09 tot_iter=      18 conv_iter=       9 cpu clock= 1.17E+00
 tran: time= 8.2052E-09 tot_iter=      22 conv_iter=      11 cpu clock= 1.17E+00
 tran: time= 1.0000E-08 tot_iter=      26 conv_iter=      13 cpu clock= 1.17E+00
 tran: time= 1.2276E-08 tot_iter=     106 conv_iter=      43 cpu clock= 1.17E+00
 tran: time= 1.4276E-08 tot_iter=     110 conv_iter=      45 cpu clock= 1.17E+00
 tran: time= 1.6276E-08 tot_iter=     114 conv_iter=      47 cpu clock= 1.17E+00
 tran: time= 1.8276E-08 tot_iter=     118 conv_iter=      49 cpu clock= 1.17E+00
 tran: time= 2.0000E-08 tot_iter=     122 conv_iter=      51 cpu clock= 1.17E+00
 sweep: tran tran0    end,  cpu clock=  1.17E+00 peak memory=       173 mb
>info:         ***** hspice job concluded
 init: begin read circuit files,  cpu clock=  1.18E+00
       option search = /Tools/Synopsys/Hspice/hspice/parts/ad
       option search = /Tools/Synopsys/Hspice/hspice/parts/ad
       option search = /Tools/Synopsys/Hspice/hspice/parts/behave
       option search = /Tools/Synopsys/Hspice/hspice/parts/bjt
       option search = /Tools/Synopsys/Hspice/hspice/parts/burr_brn
       option search = /Tools/Synopsys/Hspice/hspice/parts/comlinear
       option search = /Tools/Synopsys/Hspice/hspice/parts/dio
       option search = /Tools/Synopsys/Hspice/hspice/parts/fet
       option search = /Tools/Synopsys/Hspice/hspice/parts/lin_tech
       option search = /Tools/Synopsys/Hspice/hspice/parts/pci
       option search = /Tools/Synopsys/Hspice/hspice/parts/signet
       option search = /Tools/Synopsys/Hspice/hspice/parts/ti
       option search = /Tools/Synopsys/Hspice/hspice/parts/tline
       option search = /Tools/Synopsys/Hspice/hspice/parts/xilinx
       option runlvl
       option delmax =    1.000E-09
       option artist =     2.00
       option ingold =     2.00
       option parhier = local
       option psf =     2.00
 init: end read circuit files,  cpu clock=  1.18E+00 peak memory=       173 mb
 init: begin check errors,  cpu clock=  1.18E+00
 init: end check errors,  cpu clock=  1.18E+00 peak memory=       173 mb
 init: begin setup matrix, pivot=     0 cpu clock=  1.18E+00
       establish matrix -- done,  cpu clock=  1.18E+00 peak memory=       173 mb
       re-order matrix -- done,  cpu clock=  1.18E+00 peak memory=       173 mb
 init: end setup matrix,  cpu clock=  1.18E+00 peak memory=       173 mb
 dcop: begin dcop,  cpu clock=  1.18E+00
 dcop: end dcop,  cpu clock=  1.18E+00 peak memory=       173 mb  tot_iter=       5
 sweep: tran tran0    begin, stop_t=  2.00E-08 #sweeps= 201 cpu clock=  1.18E+00
 tran: time= 2.2052E-09 tot_iter=      10 conv_iter=       5 cpu clock= 1.18E+00
 tran: time= 4.2052E-09 tot_iter=      14 conv_iter=       7 cpu clock= 1.18E+00
 tran: time= 6.2052E-09 tot_iter=      18 conv_iter=       9 cpu clock= 1.18E+00
 tran: time= 8.2052E-09 tot_iter=      22 conv_iter=      11 cpu clock= 1.18E+00
 tran: time= 1.0000E-08 tot_iter=      26 conv_iter=      13 cpu clock= 1.18E+00
 tran: time= 1.2948E-08 tot_iter=     102 conv_iter=      43 cpu clock= 1.19E+00
 tran: time= 1.4948E-08 tot_iter=     106 conv_iter=      45 cpu clock= 1.19E+00
 tran: time= 1.6948E-08 tot_iter=     110 conv_iter=      47 cpu clock= 1.19E+00
 tran: time= 1.8948E-08 tot_iter=     114 conv_iter=      49 cpu clock= 1.19E+00
 tran: time= 2.0000E-08 tot_iter=     116 conv_iter=      50 cpu clock= 1.19E+00
 sweep: tran tran0    end,  cpu clock=  1.19E+00 peak memory=       173 mb
>info:         ***** hspice job concluded
 init: begin read circuit files,  cpu clock=  1.19E+00
       option search = /Tools/Synopsys/Hspice/hspice/parts/ad
       option search = /Tools/Synopsys/Hspice/hspice/parts/ad
       option search = /Tools/Synopsys/Hspice/hspice/parts/behave
       option search = /Tools/Synopsys/Hspice/hspice/parts/bjt
       option search = /Tools/Synopsys/Hspice/hspice/parts/burr_brn
       option search = /Tools/Synopsys/Hspice/hspice/parts/comlinear
       option search = /Tools/Synopsys/Hspice/hspice/parts/dio
       option search = /Tools/Synopsys/Hspice/hspice/parts/fet
       option search = /Tools/Synopsys/Hspice/hspice/parts/lin_tech
       option search = /Tools/Synopsys/Hspice/hspice/parts/pci
       option search = /Tools/Synopsys/Hspice/hspice/parts/signet
       option search = /Tools/Synopsys/Hspice/hspice/parts/ti
       option search = /Tools/Synopsys/Hspice/hspice/parts/tline
       option search = /Tools/Synopsys/Hspice/hspice/parts/xilinx
       option runlvl
       option delmax =    1.000E-09
       option artist =     2.00
       option ingold =     2.00
       option parhier = local
       option psf =     2.00
 init: end read circuit files,  cpu clock=  1.19E+00 peak memory=       173 mb
 init: begin check errors,  cpu clock=  1.19E+00
 init: end check errors,  cpu clock=  1.20E+00 peak memory=       173 mb
 init: begin setup matrix, pivot=     0 cpu clock=  1.20E+00
       establish matrix -- done,  cpu clock=  1.20E+00 peak memory=       173 mb
       re-order matrix -- done,  cpu clock=  1.20E+00 peak memory=       173 mb
 init: end setup matrix,  cpu clock=  1.20E+00 peak memory=       173 mb
 dcop: begin dcop,  cpu clock=  1.20E+00
 dcop: end dcop,  cpu clock=  1.20E+00 peak memory=       173 mb  tot_iter=       5
 sweep: tran tran0    begin, stop_t=  2.00E-08 #sweeps= 201 cpu clock=  1.20E+00
 tran: time= 2.2052E-09 tot_iter=      10 conv_iter=       5 cpu clock= 1.20E+00
 tran: time= 4.2052E-09 tot_iter=      14 conv_iter=       7 cpu clock= 1.20E+00
 tran: time= 6.2052E-09 tot_iter=      18 conv_iter=       9 cpu clock= 1.20E+00
 tran: time= 8.2052E-09 tot_iter=      22 conv_iter=      11 cpu clock= 1.20E+00
 tran: time= 1.0205E-08 tot_iter=      26 conv_iter=      13 cpu clock= 1.20E+00
 tran: time= 1.2205E-08 tot_iter=      30 conv_iter=      15 cpu clock= 1.20E+00
 tran: time= 1.4205E-08 tot_iter=      34 conv_iter=      17 cpu clock= 1.20E+00
 tran: time= 1.6205E-08 tot_iter=      38 conv_iter=      19 cpu clock= 1.20E+00
 tran: time= 1.8205E-08 tot_iter=      42 conv_iter=      21 cpu clock= 1.20E+00
 tran: time= 2.0000E-08 tot_iter=      46 conv_iter=      23 cpu clock= 1.20E+00
 sweep: tran tran0    end,  cpu clock=  1.20E+00 peak memory=       173 mb
>info:         ***** hspice job concluded
 init: begin read circuit files,  cpu clock=  1.20E+00
       option search = /Tools/Synopsys/Hspice/hspice/parts/ad
       option search = /Tools/Synopsys/Hspice/hspice/parts/ad
       option search = /Tools/Synopsys/Hspice/hspice/parts/behave
       option search = /Tools/Synopsys/Hspice/hspice/parts/bjt
       option search = /Tools/Synopsys/Hspice/hspice/parts/burr_brn
       option search = /Tools/Synopsys/Hspice/hspice/parts/comlinear
       option search = /Tools/Synopsys/Hspice/hspice/parts/dio
       option search = /Tools/Synopsys/Hspice/hspice/parts/fet
       option search = /Tools/Synopsys/Hspice/hspice/parts/lin_tech
       option search = /Tools/Synopsys/Hspice/hspice/parts/pci
       option search = /Tools/Synopsys/Hspice/hspice/parts/signet
       option search = /Tools/Synopsys/Hspice/hspice/parts/ti
       option search = /Tools/Synopsys/Hspice/hspice/parts/tline
       option search = /Tools/Synopsys/Hspice/hspice/parts/xilinx
       option runlvl
       option delmax =    1.000E-09
       option artist =     2.00
       option ingold =     2.00
       option parhier = local
       option psf =     2.00
 init: end read circuit files,  cpu clock=  1.21E+00 peak memory=       173 mb
 init: begin check errors,  cpu clock=  1.21E+00
 init: end check errors,  cpu clock=  1.21E+00 peak memory=       173 mb
 init: begin setup matrix, pivot=     0 cpu clock=  1.21E+00
       establish matrix -- done,  cpu clock=  1.21E+00 peak memory=       173 mb
       re-order matrix -- done,  cpu clock=  1.21E+00 peak memory=       173 mb
 init: end setup matrix,  cpu clock=  1.21E+00 peak memory=       173 mb
 dcop: begin dcop,  cpu clock=  1.21E+00
 dcop: end dcop,  cpu clock=  1.21E+00 peak memory=       173 mb  tot_iter=       8
 sweep: tran tran0    begin, stop_t=  2.00E-08 #sweeps= 201 cpu clock=  1.21E+00
 tran: time= 2.2052E-09 tot_iter=      10 conv_iter=       5 cpu clock= 1.21E+00
 tran: time= 4.2052E-09 tot_iter=      14 conv_iter=       7 cpu clock= 1.21E+00
 tran: time= 6.2052E-09 tot_iter=      18 conv_iter=       9 cpu clock= 1.21E+00
 tran: time= 8.2052E-09 tot_iter=      22 conv_iter=      11 cpu clock= 1.21E+00
 tran: time= 1.0000E-08 tot_iter=      26 conv_iter=      13 cpu clock= 1.21E+00
 tran: time= 1.2045E-08 tot_iter=      83 conv_iter=      36 cpu clock= 1.21E+00
 tran: time= 1.4045E-08 tot_iter=      88 conv_iter=      38 cpu clock= 1.21E+00
 tran: time= 1.6045E-08 tot_iter=      92 conv_iter=      40 cpu clock= 1.21E+00
 tran: time= 1.8045E-08 tot_iter=      96 conv_iter=      42 cpu clock= 1.21E+00
 tran: time= 2.0000E-08 tot_iter=     100 conv_iter=      44 cpu clock= 1.22E+00
 sweep: tran tran0    end,  cpu clock=  1.22E+00 peak memory=       173 mb
>info:         ***** hspice job concluded
 init: begin read circuit files,  cpu clock=  1.22E+00
       option search = /Tools/Synopsys/Hspice/hspice/parts/ad
       option search = /Tools/Synopsys/Hspice/hspice/parts/ad
       option search = /Tools/Synopsys/Hspice/hspice/parts/behave
       option search = /Tools/Synopsys/Hspice/hspice/parts/bjt
       option search = /Tools/Synopsys/Hspice/hspice/parts/burr_brn
       option search = /Tools/Synopsys/Hspice/hspice/parts/comlinear
       option search = /Tools/Synopsys/Hspice/hspice/parts/dio
       option search = /Tools/Synopsys/Hspice/hspice/parts/fet
       option search = /Tools/Synopsys/Hspice/hspice/parts/lin_tech
       option search = /Tools/Synopsys/Hspice/hspice/parts/pci
       option search = /Tools/Synopsys/Hspice/hspice/parts/signet
       option search = /Tools/Synopsys/Hspice/hspice/parts/ti
       option search = /Tools/Synopsys/Hspice/hspice/parts/tline
       option search = /Tools/Synopsys/Hspice/hspice/parts/xilinx
       option runlvl
       option delmax =    1.000E-09
       option artist =     2.00
       option ingold =     2.00
       option parhier = local
       option psf =     2.00
 init: end read circuit files,  cpu clock=  1.22E+00 peak memory=       173 mb
 init: begin check errors,  cpu clock=  1.22E+00
 init: end check errors,  cpu clock=  1.22E+00 peak memory=       173 mb
 init: begin setup matrix, pivot=     0 cpu clock=  1.22E+00
       establish matrix -- done,  cpu clock=  1.22E+00 peak memory=       173 mb
       re-order matrix -- done,  cpu clock=  1.22E+00 peak memory=       173 mb
 init: end setup matrix,  cpu clock=  1.22E+00 peak memory=       173 mb
 dcop: begin dcop,  cpu clock=  1.22E+00
 dcop: end dcop,  cpu clock=  1.23E+00 peak memory=       173 mb  tot_iter=       8
 sweep: tran tran0    begin, stop_t=  2.00E-08 #sweeps= 201 cpu clock=  1.23E+00
 tran: time= 2.2052E-09 tot_iter=      10 conv_iter=       5 cpu clock= 1.23E+00
 tran: time= 4.2052E-09 tot_iter=      14 conv_iter=       7 cpu clock= 1.23E+00
 tran: time= 6.2052E-09 tot_iter=      18 conv_iter=       9 cpu clock= 1.23E+00
 tran: time= 8.2052E-09 tot_iter=      22 conv_iter=      11 cpu clock= 1.23E+00
 tran: time= 1.0000E-08 tot_iter=      26 conv_iter=      13 cpu clock= 1.23E+00
 tran: time= 1.2310E-08 tot_iter=     114 conv_iter=      45 cpu clock= 1.23E+00
 tran: time= 1.4310E-08 tot_iter=     119 conv_iter=      47 cpu clock= 1.23E+00
 tran: time= 1.6310E-08 tot_iter=     123 conv_iter=      49 cpu clock= 1.23E+00
 tran: time= 1.8310E-08 tot_iter=     127 conv_iter=      51 cpu clock= 1.23E+00
 tran: time= 2.0000E-08 tot_iter=     131 conv_iter=      53 cpu clock= 1.23E+00
 sweep: tran tran0    end,  cpu clock=  1.23E+00 peak memory=       173 mb
>info:         ***** hspice job concluded
 init: begin read circuit files,  cpu clock=  1.24E+00
       option search = /Tools/Synopsys/Hspice/hspice/parts/ad
       option search = /Tools/Synopsys/Hspice/hspice/parts/ad
       option search = /Tools/Synopsys/Hspice/hspice/parts/behave
       option search = /Tools/Synopsys/Hspice/hspice/parts/bjt
       option search = /Tools/Synopsys/Hspice/hspice/parts/burr_brn
       option search = /Tools/Synopsys/Hspice/hspice/parts/comlinear
       option search = /Tools/Synopsys/Hspice/hspice/parts/dio
       option search = /Tools/Synopsys/Hspice/hspice/parts/fet
       option search = /Tools/Synopsys/Hspice/hspice/parts/lin_tech
       option search = /Tools/Synopsys/Hspice/hspice/parts/pci
       option search = /Tools/Synopsys/Hspice/hspice/parts/signet
       option search = /Tools/Synopsys/Hspice/hspice/parts/ti
       option search = /Tools/Synopsys/Hspice/hspice/parts/tline
       option search = /Tools/Synopsys/Hspice/hspice/parts/xilinx
       option runlvl
       option delmax =    1.000E-09
       option artist =     2.00
       option ingold =     2.00
       option parhier = local
       option psf =     2.00
 init: end read circuit files,  cpu clock=  1.24E+00 peak memory=       173 mb
 init: begin check errors,  cpu clock=  1.24E+00
 init: end check errors,  cpu clock=  1.24E+00 peak memory=       173 mb
 init: begin setup matrix, pivot=     0 cpu clock=  1.24E+00
       establish matrix -- done,  cpu clock=  1.24E+00 peak memory=       173 mb
       re-order matrix -- done,  cpu clock=  1.24E+00 peak memory=       173 mb
 init: end setup matrix,  cpu clock=  1.24E+00 peak memory=       173 mb
 dcop: begin dcop,  cpu clock=  1.24E+00
 dcop: end dcop,  cpu clock=  1.24E+00 peak memory=       173 mb  tot_iter=      13
 sweep: tran tran0    begin, stop_t=  2.00E-08 #sweeps= 201 cpu clock=  1.24E+00
 tran: time= 2.2052E-09 tot_iter=      10 conv_iter=       5 cpu clock= 1.24E+00
 tran: time= 4.2052E-09 tot_iter=      14 conv_iter=       7 cpu clock= 1.24E+00
 tran: time= 6.2052E-09 tot_iter=      18 conv_iter=       9 cpu clock= 1.24E+00
 tran: time= 8.2052E-09 tot_iter=      22 conv_iter=      11 cpu clock= 1.24E+00
 tran: time= 1.0000E-08 tot_iter=      26 conv_iter=      13 cpu clock= 1.24E+00
 tran: time= 1.2433E-08 tot_iter=     114 conv_iter=      45 cpu clock= 1.25E+00
 tran: time= 1.4433E-08 tot_iter=     119 conv_iter=      47 cpu clock= 1.25E+00
 tran: time= 1.6433E-08 tot_iter=     123 conv_iter=      49 cpu clock= 1.25E+00
 tran: time= 1.8433E-08 tot_iter=     127 conv_iter=      51 cpu clock= 1.25E+00
 tran: time= 2.0000E-08 tot_iter=     131 conv_iter=      53 cpu clock= 1.25E+00
 sweep: tran tran0    end,  cpu clock=  1.25E+00 peak memory=       173 mb
>info:         ***** hspice job concluded
 init: begin read circuit files,  cpu clock=  1.25E+00
       option search = /Tools/Synopsys/Hspice/hspice/parts/ad
       option search = /Tools/Synopsys/Hspice/hspice/parts/ad
       option search = /Tools/Synopsys/Hspice/hspice/parts/behave
       option search = /Tools/Synopsys/Hspice/hspice/parts/bjt
       option search = /Tools/Synopsys/Hspice/hspice/parts/burr_brn
       option search = /Tools/Synopsys/Hspice/hspice/parts/comlinear
       option search = /Tools/Synopsys/Hspice/hspice/parts/dio
       option search = /Tools/Synopsys/Hspice/hspice/parts/fet
       option search = /Tools/Synopsys/Hspice/hspice/parts/lin_tech
       option search = /Tools/Synopsys/Hspice/hspice/parts/pci
       option search = /Tools/Synopsys/Hspice/hspice/parts/signet
       option search = /Tools/Synopsys/Hspice/hspice/parts/ti
       option search = /Tools/Synopsys/Hspice/hspice/parts/tline
       option search = /Tools/Synopsys/Hspice/hspice/parts/xilinx
       option runlvl
       option delmax =    1.000E-09
       option artist =     2.00
       option ingold =     2.00
       option parhier = local
       option psf =     2.00
 init: end read circuit files,  cpu clock=  1.26E+00 peak memory=       173 mb
 init: begin check errors,  cpu clock=  1.26E+00
 init: end check errors,  cpu clock=  1.26E+00 peak memory=       173 mb
 init: begin setup matrix, pivot=     0 cpu clock=  1.26E+00
       establish matrix -- done,  cpu clock=  1.26E+00 peak memory=       173 mb
       re-order matrix -- done,  cpu clock=  1.26E+00 peak memory=       173 mb
 init: end setup matrix,  cpu clock=  1.26E+00 peak memory=       173 mb
 dcop: begin dcop,  cpu clock=  1.26E+00
 dcop: end dcop,  cpu clock=  1.26E+00 peak memory=       173 mb  tot_iter=      13
 sweep: tran tran0    begin, stop_t=  2.00E-08 #sweeps= 201 cpu clock=  1.26E+00
 tran: time= 2.2052E-09 tot_iter=      10 conv_iter=       5 cpu clock= 1.26E+00
 tran: time= 4.2052E-09 tot_iter=      14 conv_iter=       7 cpu clock= 1.26E+00
 tran: time= 6.2052E-09 tot_iter=      18 conv_iter=       9 cpu clock= 1.26E+00
 tran: time= 8.2052E-09 tot_iter=      22 conv_iter=      11 cpu clock= 1.26E+00
 tran: time= 1.0000E-08 tot_iter=      26 conv_iter=      13 cpu clock= 1.26E+00
 tran: time= 1.2055E-08 tot_iter=      90 conv_iter=      39 cpu clock= 1.27E+00
 tran: time= 1.4055E-08 tot_iter=      94 conv_iter=      41 cpu clock= 1.27E+00
 tran: time= 1.6055E-08 tot_iter=      98 conv_iter=      43 cpu clock= 1.27E+00
 tran: time= 1.8055E-08 tot_iter=     102 conv_iter=      45 cpu clock= 1.27E+00
 tran: time= 2.0000E-08 tot_iter=     106 conv_iter=      47 cpu clock= 1.27E+00
 sweep: tran tran0    end,  cpu clock=  1.27E+00 peak memory=       173 mb
>info:         ***** hspice job concluded
 init: begin read circuit files,  cpu clock=  1.27E+00
       option search = /Tools/Synopsys/Hspice/hspice/parts/ad
       option search = /Tools/Synopsys/Hspice/hspice/parts/ad
       option search = /Tools/Synopsys/Hspice/hspice/parts/behave
       option search = /Tools/Synopsys/Hspice/hspice/parts/bjt
       option search = /Tools/Synopsys/Hspice/hspice/parts/burr_brn
       option search = /Tools/Synopsys/Hspice/hspice/parts/comlinear
       option search = /Tools/Synopsys/Hspice/hspice/parts/dio
       option search = /Tools/Synopsys/Hspice/hspice/parts/fet
       option search = /Tools/Synopsys/Hspice/hspice/parts/lin_tech
       option search = /Tools/Synopsys/Hspice/hspice/parts/pci
       option search = /Tools/Synopsys/Hspice/hspice/parts/signet
       option search = /Tools/Synopsys/Hspice/hspice/parts/ti
       option search = /Tools/Synopsys/Hspice/hspice/parts/tline
       option search = /Tools/Synopsys/Hspice/hspice/parts/xilinx
       option runlvl
       option delmax =    1.000E-09
       option artist =     2.00
       option ingold =     2.00
       option parhier = local
       option psf =     2.00
 init: end read circuit files,  cpu clock=  1.27E+00 peak memory=       173 mb
 init: begin check errors,  cpu clock=  1.27E+00
 init: end check errors,  cpu clock=  1.28E+00 peak memory=       173 mb
 init: begin setup matrix, pivot=     0 cpu clock=  1.28E+00
       establish matrix -- done,  cpu clock=  1.28E+00 peak memory=       173 mb
       re-order matrix -- done,  cpu clock=  1.28E+00 peak memory=       173 mb
 init: end setup matrix,  cpu clock=  1.28E+00 peak memory=       173 mb
 dcop: begin dcop,  cpu clock=  1.28E+00
 dcop: end dcop,  cpu clock=  1.28E+00 peak memory=       173 mb  tot_iter=       8
 sweep: tran tran0    begin, stop_t=  2.00E-08 #sweeps= 201 cpu clock=  1.28E+00
 tran: time= 2.2052E-09 tot_iter=      10 conv_iter=       5 cpu clock= 1.28E+00
 tran: time= 4.2052E-09 tot_iter=      14 conv_iter=       7 cpu clock= 1.28E+00
 tran: time= 6.2052E-09 tot_iter=      18 conv_iter=       9 cpu clock= 1.28E+00
 tran: time= 8.2052E-09 tot_iter=      22 conv_iter=      11 cpu clock= 1.28E+00
 tran: time= 1.0000E-08 tot_iter=      26 conv_iter=      13 cpu clock= 1.28E+00
 tran: time= 1.2129E-08 tot_iter=     103 conv_iter=      43 cpu clock= 1.28E+00
 tran: time= 1.4129E-08 tot_iter=     107 conv_iter=      45 cpu clock= 1.28E+00
 tran: time= 1.6129E-08 tot_iter=     111 conv_iter=      47 cpu clock= 1.28E+00
 tran: time= 1.8129E-08 tot_iter=     115 conv_iter=      49 cpu clock= 1.28E+00
 tran: time= 2.0000E-08 tot_iter=     119 conv_iter=      51 cpu clock= 1.28E+00
 sweep: tran tran0    end,  cpu clock=  1.28E+00 peak memory=       173 mb
>info:         ***** hspice job concluded
 init: begin read circuit files,  cpu clock=  1.29E+00
       option search = /Tools/Synopsys/Hspice/hspice/parts/ad
       option search = /Tools/Synopsys/Hspice/hspice/parts/ad
       option search = /Tools/Synopsys/Hspice/hspice/parts/behave
       option search = /Tools/Synopsys/Hspice/hspice/parts/bjt
       option search = /Tools/Synopsys/Hspice/hspice/parts/burr_brn
       option search = /Tools/Synopsys/Hspice/hspice/parts/comlinear
       option search = /Tools/Synopsys/Hspice/hspice/parts/dio
       option search = /Tools/Synopsys/Hspice/hspice/parts/fet
       option search = /Tools/Synopsys/Hspice/hspice/parts/lin_tech
       option search = /Tools/Synopsys/Hspice/hspice/parts/pci
       option search = /Tools/Synopsys/Hspice/hspice/parts/signet
       option search = /Tools/Synopsys/Hspice/hspice/parts/ti
       option search = /Tools/Synopsys/Hspice/hspice/parts/tline
       option search = /Tools/Synopsys/Hspice/hspice/parts/xilinx
       option runlvl
       option delmax =    1.000E-09
       option artist =     2.00
       option ingold =     2.00
       option parhier = local
       option psf =     2.00
 init: end read circuit files,  cpu clock=  1.29E+00 peak memory=       173 mb
 init: begin check errors,  cpu clock=  1.29E+00
 init: end check errors,  cpu clock=  1.29E+00 peak memory=       173 mb
 init: begin setup matrix, pivot=     0 cpu clock=  1.29E+00
       establish matrix -- done,  cpu clock=  1.29E+00 peak memory=       173 mb
       re-order matrix -- done,  cpu clock=  1.29E+00 peak memory=       173 mb
 init: end setup matrix,  cpu clock=  1.29E+00 peak memory=       173 mb
 dcop: begin dcop,  cpu clock=  1.29E+00
 dcop: end dcop,  cpu clock=  1.29E+00 peak memory=       173 mb  tot_iter=       8
 sweep: tran tran0    begin, stop_t=  2.00E-08 #sweeps= 201 cpu clock=  1.29E+00
 tran: time= 2.2052E-09 tot_iter=      10 conv_iter=       5 cpu clock= 1.29E+00
 tran: time= 4.2052E-09 tot_iter=      14 conv_iter=       7 cpu clock= 1.29E+00
 tran: time= 6.2052E-09 tot_iter=      18 conv_iter=       9 cpu clock= 1.29E+00
 tran: time= 8.2052E-09 tot_iter=      22 conv_iter=      11 cpu clock= 1.29E+00
 tran: time= 1.0000E-08 tot_iter=      26 conv_iter=      13 cpu clock= 1.29E+00
 tran: time= 1.2042E-08 tot_iter=      93 conv_iter=      40 cpu clock= 1.30E+00
 tran: time= 1.4042E-08 tot_iter=      97 conv_iter=      42 cpu clock= 1.30E+00
 tran: time= 1.6042E-08 tot_iter=     101 conv_iter=      44 cpu clock= 1.30E+00
 tran: time= 1.8042E-08 tot_iter=     105 conv_iter=      46 cpu clock= 1.30E+00
 tran: time= 2.0000E-08 tot_iter=     109 conv_iter=      48 cpu clock= 1.30E+00
 sweep: tran tran0    end,  cpu clock=  1.30E+00 peak memory=       173 mb
>info:         ***** hspice job concluded
 init: begin read circuit files,  cpu clock=  1.30E+00
       option search = /Tools/Synopsys/Hspice/hspice/parts/ad
       option search = /Tools/Synopsys/Hspice/hspice/parts/ad
       option search = /Tools/Synopsys/Hspice/hspice/parts/behave
       option search = /Tools/Synopsys/Hspice/hspice/parts/bjt
       option search = /Tools/Synopsys/Hspice/hspice/parts/burr_brn
       option search = /Tools/Synopsys/Hspice/hspice/parts/comlinear
       option search = /Tools/Synopsys/Hspice/hspice/parts/dio
       option search = /Tools/Synopsys/Hspice/hspice/parts/fet
       option search = /Tools/Synopsys/Hspice/hspice/parts/lin_tech
       option search = /Tools/Synopsys/Hspice/hspice/parts/pci
       option search = /Tools/Synopsys/Hspice/hspice/parts/signet
       option search = /Tools/Synopsys/Hspice/hspice/parts/ti
       option search = /Tools/Synopsys/Hspice/hspice/parts/tline
       option search = /Tools/Synopsys/Hspice/hspice/parts/xilinx
       option runlvl
       option delmax =    1.000E-09
       option artist =     2.00
       option ingold =     2.00
       option parhier = local
       option psf =     2.00
 init: end read circuit files,  cpu clock=  1.31E+00 peak memory=       173 mb
 init: begin check errors,  cpu clock=  1.31E+00
 init: end check errors,  cpu clock=  1.31E+00 peak memory=       173 mb
 init: begin setup matrix, pivot=     0 cpu clock=  1.31E+00
       establish matrix -- done,  cpu clock=  1.31E+00 peak memory=       173 mb
       re-order matrix -- done,  cpu clock=  1.31E+00 peak memory=       173 mb
 init: end setup matrix,  cpu clock=  1.31E+00 peak memory=       173 mb
 dcop: begin dcop,  cpu clock=  1.31E+00
 dcop: end dcop,  cpu clock=  1.31E+00 peak memory=       173 mb  tot_iter=      13
 sweep: tran tran0    begin, stop_t=  2.00E-08 #sweeps= 201 cpu clock=  1.31E+00
 tran: time= 2.2052E-09 tot_iter=      10 conv_iter=       5 cpu clock= 1.31E+00
 tran: time= 4.2052E-09 tot_iter=      14 conv_iter=       7 cpu clock= 1.31E+00
 tran: time= 6.2052E-09 tot_iter=      18 conv_iter=       9 cpu clock= 1.31E+00
 tran: time= 8.2052E-09 tot_iter=      22 conv_iter=      11 cpu clock= 1.31E+00
 tran: time= 1.0000E-08 tot_iter=      26 conv_iter=      13 cpu clock= 1.31E+00
 tran: time= 1.2750E-08 tot_iter=      97 conv_iter=      41 cpu clock= 1.32E+00
 tran: time= 1.4750E-08 tot_iter=     101 conv_iter=      43 cpu clock= 1.32E+00
 tran: time= 1.6750E-08 tot_iter=     105 conv_iter=      45 cpu clock= 1.32E+00
 tran: time= 1.8750E-08 tot_iter=     109 conv_iter=      47 cpu clock= 1.32E+00
 tran: time= 2.0000E-08 tot_iter=     113 conv_iter=      49 cpu clock= 1.32E+00
 sweep: tran tran0    end,  cpu clock=  1.32E+00 peak memory=       173 mb
>info:         ***** hspice job concluded
 init: begin read circuit files,  cpu clock=  1.32E+00
       option search = /Tools/Synopsys/Hspice/hspice/parts/ad
       option search = /Tools/Synopsys/Hspice/hspice/parts/ad
       option search = /Tools/Synopsys/Hspice/hspice/parts/behave
       option search = /Tools/Synopsys/Hspice/hspice/parts/bjt
       option search = /Tools/Synopsys/Hspice/hspice/parts/burr_brn
       option search = /Tools/Synopsys/Hspice/hspice/parts/comlinear
       option search = /Tools/Synopsys/Hspice/hspice/parts/dio
       option search = /Tools/Synopsys/Hspice/hspice/parts/fet
       option search = /Tools/Synopsys/Hspice/hspice/parts/lin_tech
       option search = /Tools/Synopsys/Hspice/hspice/parts/pci
       option search = /Tools/Synopsys/Hspice/hspice/parts/signet
       option search = /Tools/Synopsys/Hspice/hspice/parts/ti
       option search = /Tools/Synopsys/Hspice/hspice/parts/tline
       option search = /Tools/Synopsys/Hspice/hspice/parts/xilinx
       option runlvl
       option delmax =    1.000E-09
       option artist =     2.00
       option ingold =     2.00
       option parhier = local
       option psf =     2.00
 init: end read circuit files,  cpu clock=  1.32E+00 peak memory=       173 mb
 init: begin check errors,  cpu clock=  1.32E+00
 init: end check errors,  cpu clock=  1.32E+00 peak memory=       173 mb
 init: begin setup matrix, pivot=     0 cpu clock=  1.32E+00
       establish matrix -- done,  cpu clock=  1.32E+00 peak memory=       173 mb
       re-order matrix -- done,  cpu clock=  1.33E+00 peak memory=       173 mb
 init: end setup matrix,  cpu clock=  1.33E+00 peak memory=       173 mb
 dcop: begin dcop,  cpu clock=  1.33E+00
 dcop: end dcop,  cpu clock=  1.33E+00 peak memory=       173 mb  tot_iter=      13
 sweep: tran tran0    begin, stop_t=  2.00E-08 #sweeps= 201 cpu clock=  1.33E+00
 tran: time= 2.2052E-09 tot_iter=      10 conv_iter=       5 cpu clock= 1.33E+00
 tran: time= 4.2052E-09 tot_iter=      14 conv_iter=       7 cpu clock= 1.33E+00
 tran: time= 6.2052E-09 tot_iter=      18 conv_iter=       9 cpu clock= 1.33E+00
 tran: time= 8.2052E-09 tot_iter=      22 conv_iter=      11 cpu clock= 1.33E+00
 tran: time= 1.0000E-08 tot_iter=      26 conv_iter=      13 cpu clock= 1.33E+00
 tran: time= 1.2364E-08 tot_iter=     113 conv_iter=      46 cpu clock= 1.33E+00
 tran: time= 1.4364E-08 tot_iter=     117 conv_iter=      48 cpu clock= 1.33E+00
 tran: time= 1.6364E-08 tot_iter=     121 conv_iter=      50 cpu clock= 1.33E+00
 tran: time= 1.8364E-08 tot_iter=     125 conv_iter=      52 cpu clock= 1.33E+00
 tran: time= 2.0000E-08 tot_iter=     129 conv_iter=      54 cpu clock= 1.33E+00
 sweep: tran tran0    end,  cpu clock=  1.33E+00 peak memory=       173 mb
>info:         ***** hspice job concluded
 init: begin read circuit files,  cpu clock=  1.34E+00
       option search = /Tools/Synopsys/Hspice/hspice/parts/ad
       option search = /Tools/Synopsys/Hspice/hspice/parts/ad
       option search = /Tools/Synopsys/Hspice/hspice/parts/behave
       option search = /Tools/Synopsys/Hspice/hspice/parts/bjt
       option search = /Tools/Synopsys/Hspice/hspice/parts/burr_brn
       option search = /Tools/Synopsys/Hspice/hspice/parts/comlinear
       option search = /Tools/Synopsys/Hspice/hspice/parts/dio
       option search = /Tools/Synopsys/Hspice/hspice/parts/fet
       option search = /Tools/Synopsys/Hspice/hspice/parts/lin_tech
       option search = /Tools/Synopsys/Hspice/hspice/parts/pci
       option search = /Tools/Synopsys/Hspice/hspice/parts/signet
       option search = /Tools/Synopsys/Hspice/hspice/parts/ti
       option search = /Tools/Synopsys/Hspice/hspice/parts/tline
       option search = /Tools/Synopsys/Hspice/hspice/parts/xilinx
       option runlvl
       option delmax =    1.000E-09
       option artist =     2.00
       option ingold =     2.00
       option parhier = local
       option psf =     2.00
 init: end read circuit files,  cpu clock=  1.34E+00 peak memory=       173 mb
 init: begin check errors,  cpu clock=  1.34E+00
 init: end check errors,  cpu clock=  1.34E+00 peak memory=       173 mb
 init: begin setup matrix, pivot=     0 cpu clock=  1.34E+00
       establish matrix -- done,  cpu clock=  1.34E+00 peak memory=       173 mb
       re-order matrix -- done,  cpu clock=  1.34E+00 peak memory=       173 mb
 init: end setup matrix,  cpu clock=  1.34E+00 peak memory=       173 mb
 dcop: begin dcop,  cpu clock=  1.34E+00
 dcop: end dcop,  cpu clock=  1.34E+00 peak memory=       173 mb  tot_iter=       5
 sweep: tran tran0    begin, stop_t=  2.00E-08 #sweeps= 201 cpu clock=  1.34E+00
 tran: time= 2.2052E-09 tot_iter=      10 conv_iter=       5 cpu clock= 1.34E+00
 tran: time= 4.2052E-09 tot_iter=      14 conv_iter=       7 cpu clock= 1.34E+00
 tran: time= 6.2052E-09 tot_iter=      18 conv_iter=       9 cpu clock= 1.34E+00
 tran: time= 8.2052E-09 tot_iter=      22 conv_iter=      11 cpu clock= 1.34E+00
 tran: time= 1.0000E-08 tot_iter=      26 conv_iter=      13 cpu clock= 1.34E+00
 tran: time= 1.2520E-08 tot_iter=     114 conv_iter=      45 cpu clock= 1.35E+00
 tran: time= 1.4520E-08 tot_iter=     119 conv_iter=      47 cpu clock= 1.35E+00
 tran: time= 1.6520E-08 tot_iter=     123 conv_iter=      49 cpu clock= 1.35E+00
 tran: time= 1.8520E-08 tot_iter=     127 conv_iter=      51 cpu clock= 1.35E+00
 tran: time= 2.0000E-08 tot_iter=     131 conv_iter=      53 cpu clock= 1.35E+00
 sweep: tran tran0    end,  cpu clock=  1.35E+00 peak memory=       173 mb
>info:         ***** hspice job concluded
 init: begin read circuit files,  cpu clock=  1.36E+00
       option search = /Tools/Synopsys/Hspice/hspice/parts/ad
       option search = /Tools/Synopsys/Hspice/hspice/parts/ad
       option search = /Tools/Synopsys/Hspice/hspice/parts/behave
       option search = /Tools/Synopsys/Hspice/hspice/parts/bjt
       option search = /Tools/Synopsys/Hspice/hspice/parts/burr_brn
       option search = /Tools/Synopsys/Hspice/hspice/parts/comlinear
       option search = /Tools/Synopsys/Hspice/hspice/parts/dio
       option search = /Tools/Synopsys/Hspice/hspice/parts/fet
       option search = /Tools/Synopsys/Hspice/hspice/parts/lin_tech
       option search = /Tools/Synopsys/Hspice/hspice/parts/pci
       option search = /Tools/Synopsys/Hspice/hspice/parts/signet
       option search = /Tools/Synopsys/Hspice/hspice/parts/ti
       option search = /Tools/Synopsys/Hspice/hspice/parts/tline
       option search = /Tools/Synopsys/Hspice/hspice/parts/xilinx
       option runlvl
       option delmax =    1.000E-09
       option artist =     2.00
       option ingold =     2.00
       option parhier = local
       option psf =     2.00
 init: end read circuit files,  cpu clock=  1.36E+00 peak memory=       173 mb
 init: begin check errors,  cpu clock=  1.36E+00
 init: end check errors,  cpu clock=  1.36E+00 peak memory=       173 mb
 init: begin setup matrix, pivot=     0 cpu clock=  1.36E+00
       establish matrix -- done,  cpu clock=  1.36E+00 peak memory=       173 mb
       re-order matrix -- done,  cpu clock=  1.36E+00 peak memory=       173 mb
 init: end setup matrix,  cpu clock=  1.36E+00 peak memory=       173 mb
 dcop: begin dcop,  cpu clock=  1.36E+00
 dcop: end dcop,  cpu clock=  1.36E+00 peak memory=       173 mb  tot_iter=       5
 sweep: tran tran0    begin, stop_t=  2.00E-08 #sweeps= 201 cpu clock=  1.36E+00
 tran: time= 2.2052E-09 tot_iter=      10 conv_iter=       5 cpu clock= 1.36E+00
 tran: time= 4.2052E-09 tot_iter=      14 conv_iter=       7 cpu clock= 1.36E+00
 tran: time= 6.2052E-09 tot_iter=      18 conv_iter=       9 cpu clock= 1.36E+00
 tran: time= 8.2052E-09 tot_iter=      22 conv_iter=      11 cpu clock= 1.36E+00
 tran: time= 1.0000E-08 tot_iter=      26 conv_iter=      13 cpu clock= 1.36E+00
 tran: time= 1.2174E-08 tot_iter=     107 conv_iter=      42 cpu clock= 1.37E+00
 tran: time= 1.4174E-08 tot_iter=     112 conv_iter=      44 cpu clock= 1.37E+00
 tran: time= 1.6174E-08 tot_iter=     116 conv_iter=      46 cpu clock= 1.37E+00
 tran: time= 1.8174E-08 tot_iter=     120 conv_iter=      48 cpu clock= 1.37E+00
 tran: time= 2.0000E-08 tot_iter=     124 conv_iter=      50 cpu clock= 1.37E+00
 sweep: tran tran0    end,  cpu clock=  1.37E+00 peak memory=       173 mb
>info:         ***** hspice job concluded
 init: begin read circuit files,  cpu clock=  1.37E+00
       option search = /Tools/Synopsys/Hspice/hspice/parts/ad
       option search = /Tools/Synopsys/Hspice/hspice/parts/ad
       option search = /Tools/Synopsys/Hspice/hspice/parts/behave
       option search = /Tools/Synopsys/Hspice/hspice/parts/bjt
       option search = /Tools/Synopsys/Hspice/hspice/parts/burr_brn
       option search = /Tools/Synopsys/Hspice/hspice/parts/comlinear
       option search = /Tools/Synopsys/Hspice/hspice/parts/dio
       option search = /Tools/Synopsys/Hspice/hspice/parts/fet
       option search = /Tools/Synopsys/Hspice/hspice/parts/lin_tech
       option search = /Tools/Synopsys/Hspice/hspice/parts/pci
       option search = /Tools/Synopsys/Hspice/hspice/parts/signet
       option search = /Tools/Synopsys/Hspice/hspice/parts/ti
       option search = /Tools/Synopsys/Hspice/hspice/parts/tline
       option search = /Tools/Synopsys/Hspice/hspice/parts/xilinx
       option runlvl
       option delmax =    1.000E-09
       option artist =     2.00
       option ingold =     2.00
       option parhier = local
       option psf =     2.00
 init: end read circuit files,  cpu clock=  1.37E+00 peak memory=       173 mb
 init: begin check errors,  cpu clock=  1.37E+00
 init: end check errors,  cpu clock=  1.38E+00 peak memory=       173 mb
 init: begin setup matrix, pivot=     0 cpu clock=  1.38E+00
       establish matrix -- done,  cpu clock=  1.38E+00 peak memory=       173 mb
       re-order matrix -- done,  cpu clock=  1.38E+00 peak memory=       173 mb
 init: end setup matrix,  cpu clock=  1.38E+00 peak memory=       173 mb
 dcop: begin dcop,  cpu clock=  1.38E+00
 dcop: end dcop,  cpu clock=  1.38E+00 peak memory=       173 mb  tot_iter=       5
 sweep: tran tran0    begin, stop_t=  2.00E-08 #sweeps= 201 cpu clock=  1.38E+00
 tran: time= 2.2052E-09 tot_iter=      10 conv_iter=       5 cpu clock= 1.38E+00
 tran: time= 4.2052E-09 tot_iter=      14 conv_iter=       7 cpu clock= 1.38E+00
 tran: time= 6.2052E-09 tot_iter=      18 conv_iter=       9 cpu clock= 1.38E+00
 tran: time= 8.2052E-09 tot_iter=      22 conv_iter=      11 cpu clock= 1.38E+00
 tran: time= 1.0000E-08 tot_iter=      26 conv_iter=      13 cpu clock= 1.38E+00
 tran: time= 1.2428E-08 tot_iter=      99 conv_iter=      40 cpu clock= 1.38E+00
 tran: time= 1.4428E-08 tot_iter=     103 conv_iter=      42 cpu clock= 1.38E+00
 tran: time= 1.6428E-08 tot_iter=     107 conv_iter=      44 cpu clock= 1.38E+00
 tran: time= 1.8428E-08 tot_iter=     111 conv_iter=      46 cpu clock= 1.38E+00
 tran: time= 2.0000E-08 tot_iter=     115 conv_iter=      48 cpu clock= 1.38E+00
 sweep: tran tran0    end,  cpu clock=  1.38E+00 peak memory=       173 mb
>info:         ***** hspice job concluded
 init: begin read circuit files,  cpu clock=  1.39E+00
       option search = /Tools/Synopsys/Hspice/hspice/parts/ad
       option search = /Tools/Synopsys/Hspice/hspice/parts/ad
       option search = /Tools/Synopsys/Hspice/hspice/parts/behave
       option search = /Tools/Synopsys/Hspice/hspice/parts/bjt
       option search = /Tools/Synopsys/Hspice/hspice/parts/burr_brn
       option search = /Tools/Synopsys/Hspice/hspice/parts/comlinear
       option search = /Tools/Synopsys/Hspice/hspice/parts/dio
       option search = /Tools/Synopsys/Hspice/hspice/parts/fet
       option search = /Tools/Synopsys/Hspice/hspice/parts/lin_tech
       option search = /Tools/Synopsys/Hspice/hspice/parts/pci
       option search = /Tools/Synopsys/Hspice/hspice/parts/signet
       option search = /Tools/Synopsys/Hspice/hspice/parts/ti
       option search = /Tools/Synopsys/Hspice/hspice/parts/tline
       option search = /Tools/Synopsys/Hspice/hspice/parts/xilinx
       option runlvl
       option delmax =    1.000E-09
       option artist =     2.00
       option ingold =     2.00
       option parhier = local
       option psf =     2.00
 init: end read circuit files,  cpu clock=  1.39E+00 peak memory=       173 mb
 init: begin check errors,  cpu clock=  1.39E+00
 init: end check errors,  cpu clock=  1.39E+00 peak memory=       173 mb
 init: begin setup matrix, pivot=     0 cpu clock=  1.39E+00
       establish matrix -- done,  cpu clock=  1.39E+00 peak memory=       173 mb
       re-order matrix -- done,  cpu clock=  1.39E+00 peak memory=       173 mb
 init: end setup matrix,  cpu clock=  1.39E+00 peak memory=       173 mb
 dcop: begin dcop,  cpu clock=  1.39E+00
 dcop: end dcop,  cpu clock=  1.40E+00 peak memory=       173 mb  tot_iter=       5
 sweep: tran tran0    begin, stop_t=  2.00E-08 #sweeps= 201 cpu clock=  1.40E+00
 tran: time= 2.2052E-09 tot_iter=      10 conv_iter=       5 cpu clock= 1.40E+00
 tran: time= 4.2052E-09 tot_iter=      14 conv_iter=       7 cpu clock= 1.40E+00
 tran: time= 6.2052E-09 tot_iter=      18 conv_iter=       9 cpu clock= 1.40E+00
 tran: time= 8.2052E-09 tot_iter=      22 conv_iter=      11 cpu clock= 1.40E+00
 tran: time= 1.0000E-08 tot_iter=      26 conv_iter=      13 cpu clock= 1.40E+00
 tran: time= 1.2814E-08 tot_iter=     117 conv_iter=      46 cpu clock= 1.40E+00
 tran: time= 1.4814E-08 tot_iter=     122 conv_iter=      48 cpu clock= 1.40E+00
 tran: time= 1.6814E-08 tot_iter=     126 conv_iter=      50 cpu clock= 1.40E+00
 tran: time= 1.8814E-08 tot_iter=     130 conv_iter=      52 cpu clock= 1.40E+00
 tran: time= 2.0000E-08 tot_iter=     134 conv_iter=      54 cpu clock= 1.40E+00
 sweep: tran tran0    end,  cpu clock=  1.40E+00 peak memory=       173 mb
>info:         ***** hspice job concluded
 init: begin read circuit files,  cpu clock=  1.41E+00
       option search = /Tools/Synopsys/Hspice/hspice/parts/ad
       option search = /Tools/Synopsys/Hspice/hspice/parts/ad
       option search = /Tools/Synopsys/Hspice/hspice/parts/behave
       option search = /Tools/Synopsys/Hspice/hspice/parts/bjt
       option search = /Tools/Synopsys/Hspice/hspice/parts/burr_brn
       option search = /Tools/Synopsys/Hspice/hspice/parts/comlinear
       option search = /Tools/Synopsys/Hspice/hspice/parts/dio
       option search = /Tools/Synopsys/Hspice/hspice/parts/fet
       option search = /Tools/Synopsys/Hspice/hspice/parts/lin_tech
       option search = /Tools/Synopsys/Hspice/hspice/parts/pci
       option search = /Tools/Synopsys/Hspice/hspice/parts/signet
       option search = /Tools/Synopsys/Hspice/hspice/parts/ti
       option search = /Tools/Synopsys/Hspice/hspice/parts/tline
       option search = /Tools/Synopsys/Hspice/hspice/parts/xilinx
       option runlvl
       option delmax =    1.000E-09
       option artist =     2.00
       option ingold =     2.00
       option parhier = local
       option psf =     2.00
 init: end read circuit files,  cpu clock=  1.41E+00 peak memory=       173 mb
 init: begin check errors,  cpu clock=  1.41E+00
 init: end check errors,  cpu clock=  1.41E+00 peak memory=       173 mb
 init: begin setup matrix, pivot=     0 cpu clock=  1.41E+00
       establish matrix -- done,  cpu clock=  1.41E+00 peak memory=       173 mb
       re-order matrix -- done,  cpu clock=  1.41E+00 peak memory=       173 mb
 init: end setup matrix,  cpu clock=  1.41E+00 peak memory=       173 mb
 dcop: begin dcop,  cpu clock=  1.41E+00
 dcop: end dcop,  cpu clock=  1.41E+00 peak memory=       173 mb  tot_iter=       5
 sweep: tran tran0    begin, stop_t=  2.00E-08 #sweeps= 201 cpu clock=  1.41E+00
 tran: time= 2.2052E-09 tot_iter=      10 conv_iter=       5 cpu clock= 1.41E+00
[...]
 tran: time= 1.2615E-08 tot_iter=     110 conv_iter=      44 cpu clock= 1.88E+00
 tran: time= 1.4615E-08 tot_iter=     115 conv_iter=      46 cpu clock= 1.88E+00
 tran: time= 1.6615E-08 tot_iter=     119 conv_iter=      48 cpu clock= 1.88E+00
 tran: time= 1.8615E-08 tot_iter=     123 conv_iter=      50 cpu clock= 1.88E+00
 tran: time= 2.0000E-08 tot_iter=     127 conv_iter=      52 cpu clock= 1.88E+00
 sweep: tran tran0    end,  cpu clock=  1.88E+00 peak memory=       173 mb
>info:         ***** hspice job concluded
 init: begin read circuit files,  cpu clock=  1.89E+00
       option search = /Tools/Synopsys/Hspice/hspice/parts/ad
       option search = /Tools/Synopsys/Hspice/hspice/parts/ad
       option search = /Tools/Synopsys/Hspice/hspice/parts/behave
       option search = /Tools/Synopsys/Hspice/hspice/parts/bjt
       option search = /Tools/Synopsys/Hspice/hspice/parts/burr_brn
       option search = /Tools/Synopsys/Hspice/hspice/parts/comlinear
       option search = /Tools/Synopsys/Hspice/hspice/parts/dio
       option search = /Tools/Synopsys/Hspice/hspice/parts/fet
       option search = /Tools/Synopsys/Hspice/hspice/parts/lin_tech
       option search = /Tools/Synopsys/Hspice/hspice/parts/pci
       option search = /Tools/Synopsys/Hspice/hspice/parts/signet
       option search = /Tools/Synopsys/Hspice/hspice/parts/ti
       option search = /Tools/Synopsys/Hspice/hspice/parts/tline
       option search = /Tools/Synopsys/Hspice/hspice/parts/xilinx
       option runlvl
       option delmax =    1.000E-09
       option artist =     2.00
       option ingold =     2.00
       option parhier = local
       option psf =     2.00
 init: end read circuit files,  cpu clock=  1.89E+00 peak memory=       173 mb
 init: begin check errors,  cpu clock=  1.89E+00
 init: end check errors,  cpu clock=  1.89E+00 peak memory=       173 mb
 init: begin setup matrix, pivot=     0 cpu clock=  1.89E+00
       establish matrix -- done,  cpu clock=  1.89E+00 peak memory=       173 mb
       re-order matrix -- done,  cpu clock=  1.89E+00 peak memory=       173 mb
 init: end setup matrix,  cpu clock=  1.89E+00 peak memory=       173 mb
 dcop: begin dcop,  cpu clock=  1.89E+00
 dcop: end dcop,  cpu clock=  1.89E+00 peak memory=       173 mb  tot_iter=       5
 sweep: tran tran0    begin, stop_t=  2.00E-08 #sweeps= 201 cpu clock=  1.89E+00
 tran: time= 2.2052E-09 tot_iter=      10 conv_iter=       5 cpu clock= 1.89E+00
 tran: time= 4.2052E-09 tot_iter=      14 conv_iter=       7 cpu clock= 1.89E+00
 tran: time= 6.2052E-09 tot_iter=      18 conv_iter=       9 cpu clock= 1.89E+00
 tran: time= 8.2052E-09 tot_iter=      22 conv_iter=      11 cpu clock= 1.89E+00
 tran: time= 1.0000E-08 tot_iter=      26 conv_iter=      13 cpu clock= 1.89E+00
 tran: time= 1.2855E-08 tot_iter=     104 conv_iter=      40 cpu clock= 1.90E+00
 tran: time= 1.4855E-08 tot_iter=     109 conv_iter=      42 cpu clock= 1.90E+00
 tran: time= 1.6855E-08 tot_iter=     113 conv_iter=      44 cpu clock= 1.90E+00
 tran: time= 1.8855E-08 tot_iter=     117 conv_iter=      46 cpu clock= 1.90E+00
 tran: time= 2.0000E-08 tot_iter=     121 conv_iter=      48 cpu clock= 1.90E+00
 sweep: tran tran0    end,  cpu clock=  1.90E+00 peak memory=       173 mb
>info:         ***** hspice job concluded
 init: begin read circuit files,  cpu clock=  1.90E+00
       option search = /Tools/Synopsys/Hspice/hspice/parts/ad
       option search = /Tools/Synopsys/Hspice/hspice/parts/ad
       option search = /Tools/Synopsys/Hspice/hspice/parts/behave
       option search = /Tools/Synopsys/Hspice/hspice/parts/bjt
       option search = /Tools/Synopsys/Hspice/hspice/parts/burr_brn
       option search = /Tools/Synopsys/Hspice/hspice/parts/comlinear
       option search = /Tools/Synopsys/Hspice/hspice/parts/dio
       option search = /Tools/Synopsys/Hspice/hspice/parts/fet
       option search = /Tools/Synopsys/Hspice/hspice/parts/lin_tech
       option search = /Tools/Synopsys/Hspice/hspice/parts/pci
       option search = /Tools/Synopsys/Hspice/hspice/parts/signet
       option search = /Tools/Synopsys/Hspice/hspice/parts/ti
       option search = /Tools/Synopsys/Hspice/hspice/parts/tline
       option search = /Tools/Synopsys/Hspice/hspice/parts/xilinx
       option runlvl
       option delmax =    1.000E-09
       option artist =     2.00
       option ingold =     2.00
       option parhier = local
       option psf =     2.00
 init: end read circuit files,  cpu clock=  1.91E+00 peak memory=       173 mb
 init: begin check errors,  cpu clock=  1.91E+00
 init: end check errors,  cpu clock=  1.91E+00 peak memory=       173 mb
 init: begin setup matrix, pivot=     0 cpu clock=  1.91E+00
       establish matrix -- done,  cpu clock=  1.91E+00 peak memory=       173 mb
       re-order matrix -- done,  cpu clock=  1.91E+00 peak memory=       173 mb
 init: end setup matrix,  cpu clock=  1.91E+00 peak memory=       173 mb
 dcop: begin dcop,  cpu clock=  1.91E+00
 dcop: end dcop,  cpu clock=  1.91E+00 peak memory=       173 mb  tot_iter=       5
 sweep: tran tran0    begin, stop_t=  2.00E-08 #sweeps= 201 cpu clock=  1.91E+00
 tran: time= 2.2052E-09 tot_iter=      10 conv_iter=       5 cpu clock= 1.91E+00
 tran: time= 4.2052E-09 tot_iter=      14 conv_iter=       7 cpu clock= 1.91E+00
 tran: time= 6.2052E-09 tot_iter=      18 conv_iter=       9 cpu clock= 1.91E+00
 tran: time= 8.2052E-09 tot_iter=      22 conv_iter=      11 cpu clock= 1.91E+00
 tran: time= 1.0000E-08 tot_iter=      26 conv_iter=      13 cpu clock= 1.91E+00
 tran: time= 1.2287E-08 tot_iter=      88 conv_iter=      38 cpu clock= 1.91E+00
 tran: time= 1.4287E-08 tot_iter=      93 conv_iter=      40 cpu clock= 1.91E+00
 tran: time= 1.6287E-08 tot_iter=      97 conv_iter=      42 cpu clock= 1.91E+00
 tran: time= 1.8287E-08 tot_iter=     101 conv_iter=      44 cpu clock= 1.91E+00
 tran: time= 2.0000E-08 tot_iter=     105 conv_iter=      46 cpu clock= 1.92E+00
 sweep: tran tran0    end,  cpu clock=  1.92E+00 peak memory=       173 mb
>info:         ***** hspice job concluded
 init: begin read circuit files,  cpu clock=  1.92E+00
       option search = /Tools/Synopsys/Hspice/hspice/parts/ad
       option search = /Tools/Synopsys/Hspice/hspice/parts/ad
       option search = /Tools/Synopsys/Hspice/hspice/parts/behave
       option search = /Tools/Synopsys/Hspice/hspice/parts/bjt
       option search = /Tools/Synopsys/Hspice/hspice/parts/burr_brn
       option search = /Tools/Synopsys/Hspice/hspice/parts/comlinear
       option search = /Tools/Synopsys/Hspice/hspice/parts/dio
       option search = /Tools/Synopsys/Hspice/hspice/parts/fet
       option search = /Tools/Synopsys/Hspice/hspice/parts/lin_tech
       option search = /Tools/Synopsys/Hspice/hspice/parts/pci
       option search = /Tools/Synopsys/Hspice/hspice/parts/signet
       option search = /Tools/Synopsys/Hspice/hspice/parts/ti
       option search = /Tools/Synopsys/Hspice/hspice/parts/tline
       option search = /Tools/Synopsys/Hspice/hspice/parts/xilinx
       option runlvl
       option delmax =    1.000E-09
       option artist =     2.00
       option ingold =     2.00
       option parhier = local
       option psf =     2.00
 init: end read circuit files,  cpu clock=  1.92E+00 peak memory=       173 mb
 init: begin check errors,  cpu clock=  1.92E+00
 init: end check errors,  cpu clock=  1.92E+00 peak memory=       173 mb
 init: begin setup matrix, pivot=     0 cpu clock=  1.92E+00
       establish matrix -- done,  cpu clock=  1.92E+00 peak memory=       173 mb
       re-order matrix -- done,  cpu clock=  1.92E+00 peak memory=       173 mb
 init: end setup matrix,  cpu clock=  1.93E+00 peak memory=       173 mb
 dcop: begin dcop,  cpu clock=  1.93E+00
 dcop: end dcop,  cpu clock=  1.93E+00 peak memory=       173 mb  tot_iter=       5
 sweep: tran tran0    begin, stop_t=  2.00E-08 #sweeps= 201 cpu clock=  1.93E+00
 tran: time= 2.2052E-09 tot_iter=      10 conv_iter=       5 cpu clock= 1.93E+00
 tran: time= 4.2052E-09 tot_iter=      14 conv_iter=       7 cpu clock= 1.93E+00
 tran: time= 6.2052E-09 tot_iter=      18 conv_iter=       9 cpu clock= 1.93E+00
 tran: time= 8.2052E-09 tot_iter=      22 conv_iter=      11 cpu clock= 1.93E+00
 tran: time= 1.0000E-08 tot_iter=      26 conv_iter=      13 cpu clock= 1.93E+00
 tran: time= 1.2322E-08 tot_iter=     106 conv_iter=      43 cpu clock= 1.93E+00
 tran: time= 1.4322E-08 tot_iter=     111 conv_iter=      45 cpu clock= 1.93E+00
 tran: time= 1.6322E-08 tot_iter=     115 conv_iter=      47 cpu clock= 1.93E+00
 tran: time= 1.8322E-08 tot_iter=     119 conv_iter=      49 cpu clock= 1.93E+00
 tran: time= 2.0000E-08 tot_iter=     123 conv_iter=      51 cpu clock= 1.93E+00
 sweep: tran tran0    end,  cpu clock=  1.93E+00 peak memory=       173 mb
>info:         ***** hspice job concluded
 init: begin read circuit files,  cpu clock=  1.94E+00
       option search = /Tools/Synopsys/Hspice/hspice/parts/ad
       option search = /Tools/Synopsys/Hspice/hspice/parts/ad
       option search = /Tools/Synopsys/Hspice/hspice/parts/behave
       option search = /Tools/Synopsys/Hspice/hspice/parts/bjt
       option search = /Tools/Synopsys/Hspice/hspice/parts/burr_brn
       option search = /Tools/Synopsys/Hspice/hspice/parts/comlinear
       option search = /Tools/Synopsys/Hspice/hspice/parts/dio
       option search = /Tools/Synopsys/Hspice/hspice/parts/fet
       option search = /Tools/Synopsys/Hspice/hspice/parts/lin_tech
       option search = /Tools/Synopsys/Hspice/hspice/parts/pci
       option search = /Tools/Synopsys/Hspice/hspice/parts/signet
       option search = /Tools/Synopsys/Hspice/hspice/parts/ti
       option search = /Tools/Synopsys/Hspice/hspice/parts/tline
       option search = /Tools/Synopsys/Hspice/hspice/parts/xilinx
       option runlvl
       option delmax =    1.000E-09
       option artist =     2.00
       option ingold =     2.00
       option parhier = local
       option psf =     2.00
 init: end read circuit files,  cpu clock=  1.94E+00 peak memory=       173 mb
 init: begin check errors,  cpu clock=  1.94E+00
 init: end check errors,  cpu clock=  1.94E+00 peak memory=       173 mb
 init: begin setup matrix, pivot=     0 cpu clock=  1.94E+00
       establish matrix -- done,  cpu clock=  1.94E+00 peak memory=       173 mb
       re-order matrix -- done,  cpu clock=  1.94E+00 peak memory=       173 mb
 init: end setup matrix,  cpu clock=  1.94E+00 peak memory=       173 mb
 dcop: begin dcop,  cpu clock=  1.94E+00
 dcop: end dcop,  cpu clock=  1.94E+00 peak memory=       173 mb  tot_iter=       5
 sweep: tran tran0    begin, stop_t=  2.00E-08 #sweeps= 201 cpu clock=  1.94E+00
 tran: time= 2.2052E-09 tot_iter=      10 conv_iter=       5 cpu clock= 1.94E+00
 tran: time= 4.2052E-09 tot_iter=      14 conv_iter=       7 cpu clock= 1.94E+00
 tran: time= 6.2052E-09 tot_iter=      18 conv_iter=       9 cpu clock= 1.94E+00
 tran: time= 8.2052E-09 tot_iter=      22 conv_iter=      11 cpu clock= 1.94E+00
 tran: time= 1.0205E-08 tot_iter=      26 conv_iter=      13 cpu clock= 1.94E+00
 tran: time= 1.2205E-08 tot_iter=      30 conv_iter=      15 cpu clock= 1.94E+00
 tran: time= 1.4205E-08 tot_iter=      34 conv_iter=      17 cpu clock= 1.94E+00
 tran: time= 1.6205E-08 tot_iter=      38 conv_iter=      19 cpu clock= 1.94E+00
 tran: time= 1.8205E-08 tot_iter=      42 conv_iter=      21 cpu clock= 1.95E+00
 tran: time= 2.0000E-08 tot_iter=      46 conv_iter=      23 cpu clock= 1.95E+00
 sweep: tran tran0    end,  cpu clock=  1.95E+00 peak memory=       173 mb
>info:         ***** hspice job concluded
 init: begin read circuit files,  cpu clock=  1.95E+00
       option search = /Tools/Synopsys/Hspice/hspice/parts/ad
       option search = /Tools/Synopsys/Hspice/hspice/parts/ad
       option search = /Tools/Synopsys/Hspice/hspice/parts/behave
       option search = /Tools/Synopsys/Hspice/hspice/parts/bjt
       option search = /Tools/Synopsys/Hspice/hspice/parts/burr_brn
       option search = /Tools/Synopsys/Hspice/hspice/parts/comlinear
       option search = /Tools/Synopsys/Hspice/hspice/parts/dio
       option search = /Tools/Synopsys/Hspice/hspice/parts/fet
       option search = /Tools/Synopsys/Hspice/hspice/parts/lin_tech
       option search = /Tools/Synopsys/Hspice/hspice/parts/pci
       option search = /Tools/Synopsys/Hspice/hspice/parts/signet
       option search = /Tools/Synopsys/Hspice/hspice/parts/ti
       option search = /Tools/Synopsys/Hspice/hspice/parts/tline
       option search = /Tools/Synopsys/Hspice/hspice/parts/xilinx
       option runlvl
       option delmax =    1.000E-09
       option artist =     2.00
       option ingold =     2.00
       option parhier = local
       option psf =     2.00
 init: end read circuit files,  cpu clock=  1.95E+00 peak memory=       173 mb
 init: begin check errors,  cpu clock=  1.95E+00
 init: end check errors,  cpu clock=  1.95E+00 peak memory=       173 mb
 init: begin setup matrix, pivot=     0 cpu clock=  1.95E+00
       establish matrix -- done,  cpu clock=  1.95E+00 peak memory=       173 mb
       re-order matrix -- done,  cpu clock=  1.95E+00 peak memory=       173 mb
 init: end setup matrix,  cpu clock=  1.95E+00 peak memory=       173 mb
 dcop: begin dcop,  cpu clock=  1.96E+00
 dcop: end dcop,  cpu clock=  1.96E+00 peak memory=       173 mb  tot_iter=       5
 sweep: tran tran0    begin, stop_t=  2.00E-08 #sweeps= 201 cpu clock=  1.96E+00
 tran: time= 2.2052E-09 tot_iter=      10 conv_iter=       5 cpu clock= 1.96E+00
 tran: time= 4.2052E-09 tot_iter=      14 conv_iter=       7 cpu clock= 1.96E+00
 tran: time= 6.2052E-09 tot_iter=      18 conv_iter=       9 cpu clock= 1.96E+00
 tran: time= 8.2052E-09 tot_iter=      22 conv_iter=      11 cpu clock= 1.96E+00
 tran: time= 1.0000E-08 tot_iter=      26 conv_iter=      13 cpu clock= 1.96E+00
 tran: time= 1.2713E-08 tot_iter=     103 conv_iter=      43 cpu clock= 1.96E+00
 tran: time= 1.4713E-08 tot_iter=     107 conv_iter=      45 cpu clock= 1.96E+00
 tran: time= 1.6713E-08 tot_iter=     111 conv_iter=      47 cpu clock= 1.96E+00
 tran: time= 1.8713E-08 tot_iter=     115 conv_iter=      49 cpu clock= 1.96E+00
 tran: time= 2.0000E-08 tot_iter=     119 conv_iter=      51 cpu clock= 1.96E+00
 sweep: tran tran0    end,  cpu clock=  1.96E+00 peak memory=       173 mb
>info:         ***** hspice job concluded
 init: begin read circuit files,  cpu clock=  1.97E+00
       option search = /Tools/Synopsys/Hspice/hspice/parts/ad
       option search = /Tools/Synopsys/Hspice/hspice/parts/ad
       option search = /Tools/Synopsys/Hspice/hspice/parts/behave
       option search = /Tools/Synopsys/Hspice/hspice/parts/bjt
       option search = /Tools/Synopsys/Hspice/hspice/parts/burr_brn
       option search = /Tools/Synopsys/Hspice/hspice/parts/comlinear
       option search = /Tools/Synopsys/Hspice/hspice/parts/dio
       option search = /Tools/Synopsys/Hspice/hspice/parts/fet
       option search = /Tools/Synopsys/Hspice/hspice/parts/lin_tech
       option search = /Tools/Synopsys/Hspice/hspice/parts/pci
       option search = /Tools/Synopsys/Hspice/hspice/parts/signet
       option search = /Tools/Synopsys/Hspice/hspice/parts/ti
       option search = /Tools/Synopsys/Hspice/hspice/parts/tline
       option search = /Tools/Synopsys/Hspice/hspice/parts/xilinx
       option runlvl
       option delmax =    1.000E-09
       option artist =     2.00
       option ingold =     2.00
       option parhier = local
       option psf =     2.00
 init: end read circuit files,  cpu clock=  1.97E+00 peak memory=       173 mb
 init: begin check errors,  cpu clock=  1.97E+00
 init: end check errors,  cpu clock=  1.97E+00 peak memory=       173 mb
 init: begin setup matrix, pivot=     0 cpu clock=  1.97E+00
       establish matrix -- done,  cpu clock=  1.97E+00 peak memory=       173 mb
       re-order matrix -- done,  cpu clock=  1.97E+00 peak memory=       173 mb
 init: end setup matrix,  cpu clock=  1.97E+00 peak memory=       173 mb
 dcop: begin dcop,  cpu clock=  1.97E+00
 dcop: end dcop,  cpu clock=  1.97E+00 peak memory=       173 mb  tot_iter=       5
 sweep: tran tran0    begin, stop_t=  2.00E-08 #sweeps= 201 cpu clock=  1.97E+00
 tran: time= 2.2052E-09 tot_iter=      10 conv_iter=       5 cpu clock= 1.97E+00
 tran: time= 4.2052E-09 tot_iter=      14 conv_iter=       7 cpu clock= 1.97E+00
 tran: time= 6.2052E-09 tot_iter=      18 conv_iter=       9 cpu clock= 1.97E+00
 tran: time= 8.2052E-09 tot_iter=      22 conv_iter=      11 cpu clock= 1.97E+00
 tran: time= 1.0000E-08 tot_iter=      26 conv_iter=      13 cpu clock= 1.97E+00
 tran: time= 1.2248E-08 tot_iter=     107 conv_iter=      44 cpu clock= 1.98E+00
 tran: time= 1.4248E-08 tot_iter=     111 conv_iter=      46 cpu clock= 1.98E+00
 tran: time= 1.6248E-08 tot_iter=     115 conv_iter=      48 cpu clock= 1.98E+00
 tran: time= 1.8248E-08 tot_iter=     119 conv_iter=      50 cpu clock= 1.98E+00
 tran: time= 2.0000E-08 tot_iter=     123 conv_iter=      52 cpu clock= 1.98E+00
 sweep: tran tran0    end,  cpu clock=  1.98E+00 peak memory=       173 mb
>info:         ***** hspice job concluded
 init: begin read circuit files,  cpu clock=  1.98E+00
       option search = /Tools/Synopsys/Hspice/hspice/parts/ad
       option search = /Tools/Synopsys/Hspice/hspice/parts/ad
       option search = /Tools/Synopsys/Hspice/hspice/parts/behave
       option search = /Tools/Synopsys/Hspice/hspice/parts/bjt
       option search = /Tools/Synopsys/Hspice/hspice/parts/burr_brn
       option search = /Tools/Synopsys/Hspice/hspice/parts/comlinear
       option search = /Tools/Synopsys/Hspice/hspice/parts/dio
       option search = /Tools/Synopsys/Hspice/hspice/parts/fet
       option search = /Tools/Synopsys/Hspice/hspice/parts/lin_tech
       option search = /Tools/Synopsys/Hspice/hspice/parts/pci
       option search = /Tools/Synopsys/Hspice/hspice/parts/signet
       option search = /Tools/Synopsys/Hspice/hspice/parts/ti
       option search = /Tools/Synopsys/Hspice/hspice/parts/tline
       option search = /Tools/Synopsys/Hspice/hspice/parts/xilinx
       option runlvl
       option delmax =    1.000E-09
       option artist =     2.00
       option ingold =     2.00
       option parhier = local
       option psf =     2.00
 init: end read circuit files,  cpu clock=  1.99E+00 peak memory=       173 mb
 init: begin check errors,  cpu clock=  1.99E+00
 init: end check errors,  cpu clock=  1.99E+00 peak memory=       173 mb
 init: begin setup matrix, pivot=     0 cpu clock=  1.99E+00
       establish matrix -- done,  cpu clock=  1.99E+00 peak memory=       173 mb
       re-order matrix -- done,  cpu clock=  1.99E+00 peak memory=       173 mb
 init: end setup matrix,  cpu clock=  1.99E+00 peak memory=       173 mb
 dcop: begin dcop,  cpu clock=  1.99E+00
 dcop: end dcop,  cpu clock=  1.99E+00 peak memory=       173 mb  tot_iter=       5
 sweep: tran tran0    begin, stop_t=  2.00E-08 #sweeps= 201 cpu clock=  1.99E+00
 tran: time= 2.2052E-09 tot_iter=      10 conv_iter=       5 cpu clock= 1.99E+00
 tran: time= 4.2052E-09 tot_iter=      14 conv_iter=       7 cpu clock= 1.99E+00
 tran: time= 6.2052E-09 tot_iter=      18 conv_iter=       9 cpu clock= 1.99E+00
 tran: time= 8.2052E-09 tot_iter=      22 conv_iter=      11 cpu clock= 1.99E+00
 tran: time= 1.0205E-08 tot_iter=      26 conv_iter=      13 cpu clock= 1.99E+00
 tran: time= 1.2205E-08 tot_iter=      30 conv_iter=      15 cpu clock= 1.99E+00
 tran: time= 1.4205E-08 tot_iter=      34 conv_iter=      17 cpu clock= 1.99E+00
 tran: time= 1.6205E-08 tot_iter=      38 conv_iter=      19 cpu clock= 1.99E+00
 tran: time= 1.8205E-08 tot_iter=      42 conv_iter=      21 cpu clock= 1.99E+00
 tran: time= 2.0000E-08 tot_iter=      46 conv_iter=      23 cpu clock= 1.99E+00
 sweep: tran tran0    end,  cpu clock=  1.99E+00 peak memory=       173 mb
>info:         ***** hspice job concluded
 lic: Release hspice token(s)
