$DATA1 SOURCE='HSPICE' VERSION='I-2013.12-SP1 64-BIT'
.TITLE 'fsff'
 id_nmos          id_pmos          ion_nmos         ion_pmos          
 temper           alter#            
  1.365e-04       -1.934e-04        1.516e+03        1.074e+03        
 -4.500e+01       63                
