$DATA1 SOURCE='HSPICE' VERSION='I-2013.12-SP1 64-BIT'
.TITLE 'tfff'
 id_nmos          id_pmos          ion_nmos         ion_pmos          
 temper           alter#            
  1.461e-04       -2.004e-04        1.622e+03        1.113e+03        
  2.500e+01       54                
