$DATA1 SOURCE='HSPICE' VERSION='I-2013.12-SP1 64-BIT'
.TITLE 'tfts'
 id_nmos          id_pmos          ion_nmos         ion_pmos          
 temper           alter#            
  1.389e-04       -1.801e-04        1.543e+03        1.000e+03        
  2.500e+01       49                
