$DATA1 SOURCE='HSPICE' VERSION='I-2013.12-SP1 64-BIT'
.TITLE 'fftt'
 id_nmos          id_pmos          ion_nmos         ion_pmos          
 temper           alter#            
  1.716e-04       -2.503e-04        1.906e+03        1.390e+03        
 -4.500e+01       77                
