$DATA1 SOURCE='HSPICE' VERSION='I-2013.12-SP1 64-BIT'
.TITLE 'tttf'
 ivth_nmos        ivth_pmos_temp   ivth_pmos        temper            
 alter#            
  2.064e-01       -2.005e-01        2.005e-01        2.500e+01        
 42                
