$DATA1 SOURCE='HSPICE' VERSION='I-2013.12-SP1 64-BIT'
.TITLE 'sfst'
 ivth_nmos        ivth_pmos_temp   ivth_pmos        temper            
 alter#            
  2.227e-01       -2.207e-01        2.207e-01        1.250e+02        
 20                
