$DATA1 SOURCE='HSPICE' VERSION='I-2013.12-SP1 64-BIT'
.TITLE 'ftfs'
 ivth_nmos        ivth_pmos_temp   ivth_pmos        temper            
 alter#            
  1.839e-01       -2.616e-01        2.616e-01       -4.500e+01        
 70                
