$DATA1 SOURCE='HSPICE' VERSION='I-2013.12-SP1 64-BIT'
.TITLE 'tttt'
 index            pn_param@l_param pp_param@l_param m0@l_param        
                  m1@l_param       wp_param@wn_param an_param@wn_param  
                  pn_param@wn_param m0@wn_param      id_nmos           
                  id_pmos          ion_nmos         ion_pmos          
                  temper           alter#            
 1                 2.999e-07        3.904e-07        5.028e-08        
                   5.039e-08        1.808e-07        9.357e-15        
                   2.999e-07        8.899e-08        1.193e-04        
                  -1.631e-04        1.325e+03        9.058e+02        
                   2.500e+01       1                 
 2                 3.012e-07        3.920e-07        5.036e-08        
                   5.005e-08        1.818e-07        9.358e-15        
                   3.012e-07        9.014e-08        1.207e-04        
                  -1.657e-04        1.341e+03        9.203e+02        
                   2.500e+01       1                 
 3                 3.004e-07        3.883e-07        4.917e-08        
                   5.044e-08        1.784e-07        9.506e-15        
                   3.004e-07        8.998e-08        1.240e-04        
                  -1.606e-04        1.377e+03        8.923e+02        
                   2.500e+01       1                 
 4                 2.994e-07        3.914e-07        5.009e-08        
                   4.963e-08        1.809e-07        9.351e-15        
                   2.994e-07        8.838e-08        1.190e-04        
                  -1.669e-04        1.321e+03        9.270e+02        
                   2.500e+01       1                 
 5                 2.999e-07        3.904e-07        4.991e-08        
                   4.992e-08        1.801e-07        9.493e-15        
                   2.999e-07        8.817e-08        1.191e-04        
                  -1.646e-04        1.323e+03        9.146e+02        
                   2.500e+01       1                 
 6                 3.002e-07        3.933e-07        4.970e-08        
                   4.955e-08        1.834e-07        9.435e-15        
                   3.002e-07        8.910e-08        1.211e-04        
                  -1.696e-04        1.345e+03        9.424e+02        
                   2.500e+01       1                 
 7                 2.994e-07        3.893e-07        5.018e-08        
                   4.978e-08        1.796e-07        9.612e-15        
                   2.994e-07        8.983e-08        1.208e-04        
                  -1.649e-04        1.342e+03        9.159e+02        
                   2.500e+01       1                 
 8                 3.013e-07        3.893e-07        4.993e-08        
                   5.001e-08        1.788e-07        9.485e-15        
                   3.013e-07        8.923e-08        1.206e-04        
                  -1.630e-04        1.340e+03        9.053e+02        
                   2.500e+01       1                 
 9                 2.976e-07        3.930e-07        4.936e-08        
                   5.053e-08        1.826e-07        9.344e-15        
                   2.976e-07        8.908e-08        1.221e-04        
                  -1.641e-04        1.356e+03        9.117e+02        
                   2.500e+01       1                 
 10                3.017e-07        3.913e-07        5.005e-08        
                   4.993e-08        1.811e-07        9.398e-15        
                   3.017e-07        8.964e-08        1.209e-04        
                  -1.655e-04        1.343e+03        9.196e+02        
                   2.500e+01       1                 
 11                3.003e-07        3.885e-07        5.026e-08        
                   5.037e-08        1.786e-07        9.545e-15        
                   3.003e-07        9.080e-08        1.220e-04        
                  -1.612e-04        1.355e+03        8.953e+02        
                   2.500e+01       1                 
 12                2.991e-07        3.905e-07        5.011e-08        
                   5.076e-08        1.803e-07        9.434e-15        
                   2.991e-07        8.950e-08        1.205e-04        
                  -1.610e-04        1.339e+03        8.943e+02        
                   2.500e+01       1                 
 13                3.000e-07        3.881e-07        5.072e-08        
                   5.008e-08        1.780e-07        9.434e-15        
                   3.000e-07        9.025e-08        1.199e-04        
                  -1.619e-04        1.332e+03        8.992e+02        
                   2.500e+01       1                 
 14                3.002e-07        3.909e-07        5.011e-08        
                   4.924e-08        1.810e-07        9.449e-15        
                   3.002e-07        9.082e-08        1.225e-04        
                  -1.689e-04        1.360e+03        9.383e+02        
                   2.500e+01       1                 
 15                3.002e-07        3.895e-07        4.990e-08        
                   5.015e-08        1.795e-07        9.564e-15        
                   3.002e-07        9.014e-08        1.221e-04        
                  -1.630e-04        1.356e+03        9.054e+02        
                   2.500e+01       1                 
 16                3.007e-07        3.908e-07        4.998e-08        
                   4.970e-08        1.806e-07        9.451e-15        
                   3.007e-07        9.036e-08        1.222e-04        
                  -1.662e-04        1.357e+03        9.232e+02        
                   2.500e+01       1                 
 17                3.014e-07        3.885e-07        5.008e-08        
                   4.999e-08        1.788e-07        9.536e-15        
                   3.014e-07        9.042e-08        1.220e-04        
                  -1.630e-04        1.355e+03        9.057e+02        
                   2.500e+01       1                 
 18                3.019e-07        3.889e-07        5.044e-08        
                   4.982e-08        1.789e-07        9.527e-15        
                   3.019e-07        9.004e-08        1.204e-04        
                  -1.640e-04        1.337e+03        9.111e+02        
                   2.500e+01       1                 
 19                2.982e-07        3.906e-07        4.999e-08        
                   4.972e-08        1.806e-07        9.481e-15        
                   2.982e-07        9.023e-08        1.219e-04        
                  -1.661e-04        1.355e+03        9.227e+02        
                   2.500e+01       1                 
 20                3.009e-07        3.935e-07        5.040e-08        
                   4.966e-08        1.834e-07        9.523e-15        
                   3.009e-07        8.982e-08        1.202e-04        
                  -1.691e-04        1.335e+03        9.391e+02        
                   2.500e+01       1                 
 21                3.002e-07        3.902e-07        4.956e-08        
                   5.034e-08        1.797e-07        9.431e-15        
                   3.002e-07        8.941e-08        1.220e-04        
                  -1.623e-04        1.355e+03        9.018e+02        
                   2.500e+01       1                 
 22                3.009e-07        3.922e-07        5.041e-08        
                   5.047e-08        1.828e-07        9.576e-15        
                   3.009e-07        8.819e-08        1.178e-04        
                  -1.646e-04        1.308e+03        9.145e+02        
                   2.500e+01       1                 
 23                2.981e-07        3.930e-07        4.977e-08        
                   5.008e-08        1.828e-07        9.491e-15        
                   2.981e-07        8.832e-08        1.198e-04        
                  -1.665e-04        1.330e+03        9.248e+02        
                   2.500e+01       1                 
 24                2.994e-07        3.892e-07        5.060e-08        
                   5.017e-08        1.798e-07        9.386e-15        
                   2.994e-07        8.979e-08        1.196e-04        
                  -1.632e-04        1.328e+03        9.066e+02        
                   2.500e+01       1                 
 25                3.015e-07        3.923e-07        4.953e-08        
                   5.022e-08        1.822e-07        9.528e-15        
                   3.015e-07        9.016e-08        1.232e-04        
                  -1.652e-04        1.368e+03        9.178e+02        
                   2.500e+01       1                 
 26                2.998e-07        3.915e-07        5.034e-08        
                   5.028e-08        1.810e-07        9.494e-15        
                   2.998e-07        9.022e-08        1.209e-04        
                  -1.638e-04        1.343e+03        9.099e+02        
                   2.500e+01       1                 
 27                3.000e-07        3.909e-07        5.032e-08        
                   4.999e-08        1.809e-07        9.527e-15        
                   3.000e-07        9.005e-08        1.207e-04        
                  -1.650e-04        1.341e+03        9.168e+02        
                   2.500e+01       1                 
 28                2.989e-07        3.906e-07        4.952e-08        
                   5.057e-08        1.810e-07        9.380e-15        
                   2.989e-07        9.075e-08        1.241e-04        
                  -1.624e-04        1.378e+03        9.022e+02        
                   2.500e+01       1                 
 29                3.000e-07        3.894e-07        4.976e-08        
                   5.018e-08        1.794e-07        9.342e-15        
                   3.000e-07        9.081e-08        1.235e-04        
                  -1.628e-04        1.372e+03        9.044e+02        
                   2.500e+01       1                 
 30                2.989e-07        3.872e-07        5.020e-08        
                   4.968e-08        1.776e-07        9.544e-15        
                   2.989e-07        8.892e-08        1.194e-04        
                  -1.634e-04        1.326e+03        9.076e+02        
                   2.500e+01       1                 
 31                3.006e-07        3.906e-07        5.001e-08        
                   4.980e-08        1.811e-07        9.317e-15        
                   3.006e-07        9.034e-08        1.220e-04        
                  -1.662e-04        1.355e+03        9.233e+02        
                   2.500e+01       1                 
 32                3.004e-07        3.910e-07        5.030e-08        
                   4.996e-08        1.806e-07        9.510e-15        
                   3.004e-07        8.973e-08        1.203e-04        
                  -1.650e-04        1.337e+03        9.166e+02        
                   2.500e+01       1                 
 33                3.008e-07        3.880e-07        4.936e-08        
                   5.039e-08        1.782e-07        9.525e-15        
                   3.008e-07        9.010e-08        1.236e-04        
                  -1.606e-04        1.373e+03        8.921e+02        
                   2.500e+01       1                 
 34                2.995e-07        3.858e-07        4.974e-08        
                   5.049e-08        1.758e-07        9.499e-15        
                   2.995e-07        9.170e-08        1.248e-04        
                  -1.580e-04        1.387e+03        8.775e+02        
                   2.500e+01       1                 
 35                3.014e-07        3.894e-07        4.983e-08        
                   5.038e-08        1.791e-07        9.430e-15        
                   3.014e-07        8.833e-08        1.196e-04        
                  -1.615e-04        1.329e+03        8.973e+02        
                   2.500e+01       1                 
 36                3.006e-07        3.910e-07        5.037e-08        
                   4.978e-08        1.813e-07        9.347e-15        
                   3.006e-07        8.939e-08        1.196e-04        
                  -1.665e-04        1.329e+03        9.250e+02        
                   2.500e+01       1                 
 37                3.022e-07        3.889e-07        4.980e-08        
                   5.045e-08        1.791e-07        9.367e-15        
                   3.022e-07        9.049e-08        1.229e-04        
                  -1.613e-04        1.365e+03        8.958e+02        
                   2.500e+01       1                 
 38                2.987e-07        3.915e-07        4.990e-08        
                   4.988e-08        1.811e-07        9.412e-15        
                   2.987e-07        9.027e-08        1.223e-04        
                  -1.658e-04        1.358e+03        9.211e+02        
                   2.500e+01       1                 
 39                3.005e-07        3.920e-07        5.004e-08        
                   5.027e-08        1.818e-07        9.457e-15        
                   3.005e-07        8.952e-08        1.208e-04        
                  -1.646e-04        1.341e+03        9.142e+02        
                   2.500e+01       1                 
 40                3.003e-07        3.934e-07        5.029e-08        
                   5.001e-08        1.835e-07        9.363e-15        
                   3.003e-07        8.822e-08        1.182e-04        
                  -1.674e-04        1.312e+03        9.302e+02        
                   2.500e+01       1                 
 41                2.996e-07        3.898e-07        4.996e-08        
                   4.994e-08        1.803e-07        9.480e-15        
                   2.996e-07        9.027e-08        1.221e-04        
                  -1.647e-04        1.356e+03        9.151e+02        
                   2.500e+01       1                 
 42                2.985e-07        3.919e-07        5.073e-08        
                   4.998e-08        1.819e-07        9.466e-15        
                   2.985e-07        9.067e-08        1.205e-04        
                  -1.661e-04        1.338e+03        9.228e+02        
                   2.500e+01       1                 
 43                3.005e-07        3.930e-07        4.983e-08        
                   4.974e-08        1.826e-07        9.531e-15        
                   3.005e-07        8.948e-08        1.213e-04        
                  -1.680e-04        1.347e+03        9.330e+02        
                   2.500e+01       1                 
 44                3.004e-07        3.895e-07        5.025e-08        
                   5.036e-08        1.796e-07        9.352e-15        
                   3.004e-07        9.065e-08        1.218e-04        
                  -1.621e-04        1.353e+03        9.005e+02        
                   2.500e+01       1                 
 45                2.993e-07        3.927e-07        4.976e-08        
                   4.983e-08        1.828e-07        9.318e-15        
                   2.993e-07        8.982e-08        1.220e-04        
                  -1.677e-04        1.355e+03        9.314e+02        
                   2.500e+01       1                 
 46                3.000e-07        3.907e-07        5.038e-08        
                   5.010e-08        1.805e-07        9.421e-15        
                   3.000e-07        8.839e-08        1.182e-04        
                  -1.642e-04        1.313e+03        9.122e+02        
                   2.500e+01       1                 
 47                3.009e-07        3.874e-07        5.005e-08        
                   5.024e-08        1.774e-07        9.545e-15        
                   3.009e-07        8.857e-08        1.193e-04        
                  -1.606e-04        1.325e+03        8.920e+02        
                   2.500e+01       1                 
 48                3.000e-07        3.943e-07        5.031e-08        
                   5.024e-08        1.841e-07        9.457e-15        
                   3.000e-07        9.133e-08        1.226e-04        
                  -1.669e-04        1.362e+03        9.273e+02        
                   2.500e+01       1                 
 49                3.002e-07        3.909e-07        4.984e-08        
                   4.951e-08        1.806e-07        9.368e-15        
                   3.002e-07        8.909e-08        1.207e-04        
                  -1.671e-04        1.341e+03        9.285e+02        
                   2.500e+01       1                 
 50                2.982e-07        3.899e-07        4.951e-08        
                   5.015e-08        1.799e-07        9.442e-15        
                   2.982e-07        8.878e-08        1.212e-04        
                  -1.634e-04        1.346e+03        9.075e+02        
                   2.500e+01       1                 
 51                3.003e-07        3.881e-07        5.047e-08        
                   4.981e-08        1.784e-07        9.682e-15        
                   3.003e-07        8.947e-08        1.195e-04        
                  -1.635e-04        1.327e+03        9.085e+02        
                   2.500e+01       1                 
 52                2.998e-07        3.923e-07        5.015e-08        
                   4.992e-08        1.821e-07        9.399e-15        
                   2.998e-07        9.077e-08        1.223e-04        
                  -1.666e-04        1.358e+03        9.256e+02        
                   2.500e+01       1                 
 53                2.994e-07        3.865e-07        5.009e-08        
                   5.027e-08        1.764e-07        9.390e-15        
                   2.994e-07        9.054e-08        1.221e-04        
                  -1.595e-04        1.356e+03        8.858e+02        
                   2.500e+01       1                 
 54                3.007e-07        3.897e-07        5.020e-08        
                   5.025e-08        1.797e-07        9.489e-15        
                   3.007e-07        9.119e-08        1.227e-04        
                  -1.627e-04        1.363e+03        9.040e+02        
                   2.500e+01       1                 
 55                2.992e-07        3.885e-07        5.004e-08        
                   4.963e-08        1.783e-07        9.232e-15        
                   2.992e-07        8.997e-08        1.214e-04        
                  -1.644e-04        1.349e+03        9.131e+02        
                   2.500e+01       1                 
 56                2.988e-07        3.898e-07        4.982e-08        
                   4.984e-08        1.793e-07        9.399e-15        
                   2.988e-07        8.983e-08        1.219e-04        
                  -1.643e-04        1.353e+03        9.129e+02        
                   2.500e+01       1                 
 57                3.002e-07        3.909e-07        4.990e-08        
                   5.013e-08        1.809e-07        9.510e-15        
                   3.002e-07        9.069e-08        1.229e-04        
                  -1.644e-04        1.365e+03        9.135e+02        
                   2.500e+01       1                 
 58                2.984e-07        3.907e-07        4.990e-08        
                   5.035e-08        1.807e-07        9.442e-15        
                   2.984e-07        8.984e-08        1.216e-04        
                  -1.632e-04        1.351e+03        9.065e+02        
                   2.500e+01       1                 
 59                3.003e-07        3.894e-07        4.968e-08        
                   4.943e-08        1.793e-07        9.395e-15        
                   3.003e-07        9.099e-08        1.240e-04        
                  -1.662e-04        1.377e+03        9.235e+02        
                   2.500e+01       1                 
 60                2.995e-07        3.885e-07        5.010e-08        
                   5.018e-08        1.779e-07        9.416e-15        
                   2.995e-07        9.032e-08        1.218e-04        
                  -1.613e-04        1.352e+03        8.961e+02        
                   2.500e+01       1                 
 61                2.990e-07        3.895e-07        4.928e-08        
                   5.057e-08        1.797e-07        9.519e-15        
                   2.990e-07        9.000e-08        1.237e-04        
                  -1.612e-04        1.374e+03        8.954e+02        
                   2.500e+01       1                 
 62                3.010e-07        3.912e-07        5.063e-08        
                   4.988e-08        1.810e-07        9.419e-15        
                   3.010e-07        8.767e-08        1.164e-04        
                  -1.657e-04        1.293e+03        9.207e+02        
                   2.500e+01       1                 
 63                3.002e-07        3.882e-07        4.944e-08        
                   4.984e-08        1.778e-07        9.540e-15        
                   3.002e-07        8.963e-08        1.227e-04        
                  -1.628e-04        1.363e+03        9.046e+02        
                   2.500e+01       1                 
 64                2.993e-07        3.907e-07        5.078e-08        
                   5.012e-08        1.809e-07        9.448e-15        
                   2.993e-07        8.995e-08        1.193e-04        
                  -1.645e-04        1.325e+03        9.138e+02        
                   2.500e+01       1                 
 65                2.983e-07        3.916e-07        5.018e-08        
                   4.956e-08        1.818e-07        9.477e-15        
                   2.983e-07        9.044e-08        1.217e-04        
                  -1.680e-04        1.352e+03        9.334e+02        
                   2.500e+01       1                 
 66                2.984e-07        3.892e-07        5.096e-08        
                   4.994e-08        1.789e-07        9.385e-15        
                   2.984e-07        8.922e-08        1.178e-04        
                  -1.634e-04        1.308e+03        9.078e+02        
                   2.500e+01       1                 
 67                2.998e-07        3.853e-07        5.029e-08        
                   5.028e-08        1.755e-07        9.460e-15        
                   2.998e-07        8.950e-08        1.200e-04        
                  -1.586e-04        1.333e+03        8.809e+02        
                   2.500e+01       1                 
 68                3.007e-07        3.900e-07        5.019e-08        
                   4.992e-08        1.795e-07        9.523e-15        
                   3.007e-07        8.982e-08        1.208e-04        
                  -1.641e-04        1.341e+03        9.117e+02        
                   2.500e+01       1                 
 69                2.991e-07        3.922e-07        5.004e-08        
                   4.987e-08        1.819e-07        9.546e-15        
                   2.991e-07        8.981e-08        1.212e-04        
                  -1.666e-04        1.346e+03        9.256e+02        
                   2.500e+01       1                 
 70                3.015e-07        3.931e-07        5.046e-08        
                   4.946e-08        1.832e-07        9.469e-15        
                   3.015e-07        9.033e-08        1.207e-04        
                  -1.699e-04        1.341e+03        9.439e+02        
                   2.500e+01       1                 
 71                3.015e-07        3.916e-07        4.942e-08        
                   5.066e-08        1.821e-07        9.633e-15        
                   3.015e-07        9.048e-08        1.240e-04        
                  -1.631e-04        1.377e+03        9.059e+02        
                   2.500e+01       1                 
 72                3.000e-07        3.915e-07        4.978e-08        
                   5.001e-08        1.816e-07        9.523e-15        
                   3.000e-07        8.938e-08        1.213e-04        
                  -1.656e-04        1.347e+03        9.202e+02        
                   2.500e+01       1                 
 73                3.009e-07        3.892e-07        5.050e-08        
                   4.978e-08        1.797e-07        9.512e-15        
                   3.009e-07        9.067e-08        1.211e-04        
                  -1.650e-04        1.346e+03        9.163e+02        
                   2.500e+01       1                 
 74                2.998e-07        3.894e-07        5.006e-08        
                   5.023e-08        1.789e-07        9.509e-15        
                   2.998e-07        9.056e-08        1.222e-04        
                  -1.620e-04        1.358e+03        9.000e+02        
                   2.500e+01       1                 
 75                3.006e-07        3.913e-07        5.017e-08        
                   4.991e-08        1.815e-07        9.367e-15        
                   3.006e-07        8.908e-08        1.198e-04        
                  -1.660e-04        1.330e+03        9.224e+02        
                   2.500e+01       1                 
 76                2.996e-07        3.887e-07        4.998e-08        
                   5.062e-08        1.790e-07        9.349e-15        
                   2.996e-07        8.834e-08        1.192e-04        
                  -1.603e-04        1.324e+03        8.908e+02        
                   2.500e+01       1                 
 77                3.011e-07        3.917e-07        5.053e-08        
                   5.056e-08        1.814e-07        9.560e-15        
                   3.011e-07        9.061e-08        1.210e-04        
                  -1.628e-04        1.344e+03        9.046e+02        
                   2.500e+01       1                 
 78                2.997e-07        3.905e-07        5.041e-08        
                   5.005e-08        1.805e-07        9.605e-15        
                   2.997e-07        9.003e-08        1.205e-04        
                  -1.644e-04        1.338e+03        9.133e+02        
                   2.500e+01       1                 
 79                2.996e-07        3.904e-07        4.931e-08        
                   5.037e-08        1.804e-07        9.480e-15        
                   2.996e-07        9.159e-08        1.260e-04        
                  -1.628e-04        1.399e+03        9.046e+02        
                   2.500e+01       1                 
 80                2.999e-07        3.909e-07        4.967e-08        
                   5.034e-08        1.809e-07        9.618e-15        
                   2.999e-07        9.043e-08        1.232e-04        
                  -1.634e-04        1.368e+03        9.079e+02        
                   2.500e+01       1                 
 81                2.995e-07        3.886e-07        4.999e-08        
                   4.972e-08        1.793e-07        9.472e-15        
                   2.995e-07        8.933e-08        1.206e-04        
                  -1.649e-04        1.340e+03        9.158e+02        
                   2.500e+01       1                 
 82                3.006e-07        3.904e-07        5.001e-08        
                   4.928e-08        1.802e-07        9.331e-15        
                   3.006e-07        8.921e-08        1.204e-04        
                  -1.679e-04        1.337e+03        9.330e+02        
                   2.500e+01       1                 
 83                2.996e-07        3.889e-07        5.018e-08        
                   5.049e-08        1.784e-07        9.546e-15        
                   2.996e-07        9.215e-08        1.242e-04        
                  -1.603e-04        1.380e+03        8.908e+02        
                   2.500e+01       1                 
 84                3.003e-07        3.913e-07        4.980e-08        
                   5.034e-08        1.817e-07        9.514e-15        
                   3.003e-07        8.930e-08        1.211e-04        
                  -1.642e-04        1.346e+03        9.121e+02        
                   2.500e+01       1                 
 85                3.009e-07        3.889e-07        4.994e-08        
                   4.994e-08        1.790e-07        9.559e-15        
                   3.009e-07        9.015e-08        1.220e-04        
                  -1.635e-04        1.355e+03        9.085e+02        
                   2.500e+01       1                 
 86                3.000e-07        3.916e-07        5.013e-08        
                   5.003e-08        1.811e-07        9.451e-15        
                   3.000e-07        8.954e-08        1.205e-04        
                  -1.651e-04        1.339e+03        9.172e+02        
                   2.500e+01       1                 
 87                2.991e-07        3.924e-07        5.044e-08        
                   4.950e-08        1.827e-07        9.418e-15        
                   2.991e-07        8.863e-08        1.183e-04        
                  -1.693e-04        1.314e+03        9.403e+02        
                   2.500e+01       1                 
 88                3.000e-07        3.883e-07        5.012e-08        
                   5.014e-08        1.787e-07        9.460e-15        
                   3.000e-07        8.956e-08        1.206e-04        
                  -1.623e-04        1.340e+03        9.015e+02        
                   2.500e+01       1                 
 89                3.025e-07        3.880e-07        5.033e-08        
                   4.962e-08        1.779e-07        9.337e-15        
                   3.025e-07        8.936e-08        1.197e-04        
                  -1.640e-04        1.330e+03        9.111e+02        
                   2.500e+01       1                 
 90                2.999e-07        3.919e-07        4.924e-08        
                   4.982e-08        1.818e-07        9.389e-15        
                   2.999e-07        9.031e-08        1.243e-04        
                  -1.668e-04        1.381e+03        9.265e+02        
                   2.500e+01       1                 
 91                3.014e-07        3.888e-07        4.971e-08        
                   4.993e-08        1.788e-07        9.579e-15        
                   3.014e-07        8.941e-08        1.215e-04        
                  -1.633e-04        1.350e+03        9.072e+02        
                   2.500e+01       1                 
 92                2.988e-07        3.905e-07        5.023e-08        
                   5.001e-08        1.806e-07        9.531e-15        
                   2.988e-07        9.127e-08        1.227e-04        
                  -1.647e-04        1.363e+03        9.148e+02        
                   2.500e+01       1                 
 93                3.019e-07        3.910e-07        5.012e-08        
                   5.002e-08        1.808e-07        9.533e-15        
                   3.019e-07        9.044e-08        1.219e-04        
                  -1.648e-04        1.354e+03        9.158e+02        
                   2.500e+01       1                 
 94                2.998e-07        3.883e-07        5.014e-08        
                   5.081e-08        1.784e-07        9.381e-15        
                   2.998e-07        8.982e-08        1.209e-04        
                  -1.590e-04        1.343e+03        8.832e+02        
                   2.500e+01       1                 
 95                3.003e-07        3.858e-07        4.968e-08        
                   5.028e-08        1.758e-07        9.417e-15        
                   3.003e-07        9.090e-08        1.238e-04        
                  -1.589e-04        1.375e+03        8.827e+02        
                   2.500e+01       1                 
 96                2.997e-07        3.882e-07        5.030e-08        
                   4.996e-08        1.784e-07        9.418e-15        
                   2.997e-07        8.870e-08        1.188e-04        
                  -1.628e-04        1.320e+03        9.045e+02        
                   2.500e+01       1                 
 97                2.999e-07        3.908e-07        5.030e-08        
                   4.985e-08        1.807e-07        9.511e-15        
                   2.999e-07        8.979e-08        1.204e-04        
                  -1.655e-04        1.337e+03        9.196e+02        
                   2.500e+01       1                 
 98                3.003e-07        3.916e-07        5.022e-08        
                   4.996e-08        1.812e-07        9.373e-15        
                   3.003e-07        8.991e-08        1.208e-04        
                  -1.655e-04        1.342e+03        9.194e+02        
                   2.500e+01       1                 
 99                2.996e-07        3.874e-07        4.991e-08        
                   4.983e-08        1.776e-07        9.364e-15        
                   2.996e-07        9.047e-08        1.225e-04        
                  -1.627e-04        1.361e+03        9.037e+02        
                   2.500e+01       1                 
 100               3.015e-07        3.903e-07        5.007e-08        
                   5.018e-08        1.801e-07        9.335e-15        
                   3.015e-07        8.994e-08        1.213e-04        
                  -1.634e-04        1.347e+03        9.077e+02        
                   2.500e+01       1                 
 101               3.014e-07        3.886e-07        4.971e-08        
                   5.027e-08        1.788e-07        9.503e-15        
                   3.014e-07        9.018e-08        1.227e-04        
                  -1.617e-04        1.363e+03        8.984e+02        
                   2.500e+01       1                 
 102               2.993e-07        3.913e-07        4.993e-08        
                   4.989e-08        1.808e-07        9.487e-15        
                   2.993e-07        9.055e-08        1.226e-04        
                  -1.655e-04        1.361e+03        9.194e+02        
                   2.500e+01       1                 
 103               2.989e-07        3.886e-07        5.012e-08        
                   4.979e-08        1.790e-07        9.332e-15        
                   2.989e-07        9.007e-08        1.213e-04        
                  -1.643e-04        1.348e+03        9.126e+02        
                   2.500e+01       1                 
 104               3.007e-07        3.862e-07        5.021e-08        
                   4.996e-08        1.760e-07        9.480e-15        
                   3.007e-07        8.982e-08        1.207e-04        
                  -1.606e-04        1.341e+03        8.920e+02        
                   2.500e+01       1                 
 105               3.006e-07        3.889e-07        5.010e-08        
                   4.980e-08        1.790e-07        9.347e-15        
                   3.006e-07        9.004e-08        1.213e-04        
                  -1.642e-04        1.348e+03        9.119e+02        
                   2.500e+01       1                 
 106               3.005e-07        3.885e-07        5.028e-08        
                   5.008e-08        1.786e-07        9.456e-15        
                   3.005e-07        9.155e-08        1.230e-04        
                  -1.624e-04        1.367e+03        9.023e+02        
                   2.500e+01       1                 
 107               2.995e-07        3.901e-07        4.977e-08        
                   4.923e-08        1.801e-07        9.498e-15        
                   2.995e-07        9.090e-08        1.236e-04        
                  -1.681e-04        1.373e+03        9.336e+02        
                   2.500e+01       1                 
 108               2.998e-07        3.904e-07        4.987e-08        
                   4.990e-08        1.800e-07        9.400e-15        
                   2.998e-07        8.960e-08        1.213e-04        
                  -1.646e-04        1.348e+03        9.145e+02        
                   2.500e+01       1                 
 109               3.011e-07        3.917e-07        4.930e-08        
                   5.023e-08        1.815e-07        9.468e-15        
                   3.011e-07        8.932e-08        1.226e-04        
                  -1.645e-04        1.362e+03        9.139e+02        
                   2.500e+01       1                 
 110               3.004e-07        3.902e-07        5.026e-08        
                   4.985e-08        1.801e-07        9.343e-15        
                   3.004e-07        9.012e-08        1.210e-04        
                  -1.650e-04        1.344e+03        9.168e+02        
                   2.500e+01       1                 
 111               3.007e-07        3.882e-07        4.990e-08        
                   4.993e-08        1.781e-07        9.472e-15        
                   3.007e-07        9.058e-08        1.227e-04        
                  -1.627e-04        1.363e+03        9.039e+02        
                   2.500e+01       1                 
 112               3.013e-07        3.879e-07        4.996e-08        
                   4.993e-08        1.782e-07        9.430e-15        
                   3.013e-07        9.109e-08        1.233e-04        
                  -1.628e-04        1.369e+03        9.043e+02        
                   2.500e+01       1                 
 113               3.002e-07        3.898e-07        4.979e-08        
                   4.983e-08        1.796e-07        9.396e-15        
                   3.002e-07        8.983e-08        1.219e-04        
                  -1.646e-04        1.354e+03        9.145e+02        
                   2.500e+01       1                 
 114               2.993e-07        3.904e-07        4.915e-08        
                   4.951e-08        1.806e-07        9.318e-15        
                   2.993e-07        9.064e-08        1.251e-04        
                  -1.671e-04        1.389e+03        9.285e+02        
                   2.500e+01       1                 
 115               3.006e-07        3.890e-07        5.003e-08        
                   4.925e-08        1.789e-07        9.650e-15        
                   3.006e-07        8.974e-08        1.211e-04        
                  -1.668e-04        1.345e+03        9.266e+02        
                   2.500e+01       1                 
 116               2.998e-07        3.876e-07        5.016e-08        
                   5.014e-08        1.778e-07        9.327e-15        
                   2.998e-07        8.999e-08        1.211e-04        
                  -1.615e-04        1.345e+03        8.970e+02        
                   2.500e+01       1                 
 117               3.004e-07        3.881e-07        5.036e-08        
                   5.010e-08        1.780e-07        9.479e-15        
                   3.004e-07        9.058e-08        1.214e-04        
                  -1.618e-04        1.348e+03        8.990e+02        
                   2.500e+01       1                 
 118               2.996e-07        3.905e-07        4.972e-08        
                   4.983e-08        1.802e-07        9.439e-15        
                   2.996e-07        9.146e-08        1.245e-04        
                  -1.651e-04        1.383e+03        9.174e+02        
                   2.500e+01       1                 
 119               3.002e-07        3.895e-07        5.019e-08        
                   4.975e-08        1.789e-07        9.377e-15        
                   3.002e-07        9.082e-08        1.222e-04        
                  -1.644e-04        1.358e+03        9.131e+02        
                   2.500e+01       1                 
 120               2.997e-07        3.930e-07        4.957e-08        
                   5.036e-08        1.830e-07        9.370e-15        
                   2.997e-07        8.907e-08        1.215e-04        
                  -1.652e-04        1.349e+03        9.180e+02        
                   2.500e+01       1                 
 121               2.996e-07        3.895e-07        4.983e-08        
                   4.994e-08        1.796e-07        9.603e-15        
                   2.996e-07        9.081e-08        1.233e-04        
                  -1.641e-04        1.369e+03        9.117e+02        
                   2.500e+01       1                 
 122               3.001e-07        3.919e-07        4.949e-08        
                   5.062e-08        1.818e-07        9.422e-15        
                   3.001e-07        8.930e-08        1.220e-04        
                  -1.630e-04        1.355e+03        9.056e+02        
                   2.500e+01       1                 
 123               2.995e-07        3.912e-07        4.942e-08        
                   5.048e-08        1.815e-07        9.389e-15        
                   2.995e-07        8.991e-08        1.232e-04        
                  -1.633e-04        1.368e+03        9.071e+02        
                   2.500e+01       1                 
 124               2.997e-07        3.894e-07        4.943e-08        
                   5.050e-08        1.791e-07        9.552e-15        
                   2.997e-07        8.849e-08        1.210e-04        
                  -1.610e-04        1.344e+03        8.945e+02        
                   2.500e+01       1                 
 125               3.018e-07        3.872e-07        4.992e-08        
                   5.001e-08        1.764e-07        9.483e-15        
                   3.018e-07        8.938e-08        1.209e-04        
                  -1.607e-04        1.343e+03        8.925e+02        
                   2.500e+01       1                 
 126               2.979e-07        3.930e-07        4.981e-08        
                   4.951e-08        1.836e-07        9.329e-15        
                   2.979e-07        9.058e-08        1.230e-04        
                  -1.701e-04        1.366e+03        9.447e+02        
                   2.500e+01       1                 
 127               3.000e-07        3.891e-07        5.017e-08        
                   5.028e-08        1.789e-07        9.523e-15        
                   3.000e-07        8.887e-08        1.194e-04        
                  -1.618e-04        1.327e+03        8.988e+02        
                   2.500e+01       1                 
 128               2.996e-07        3.901e-07        4.990e-08        
                   4.934e-08        1.799e-07        9.442e-15        
                   2.996e-07        9.097e-08        1.233e-04        
                  -1.673e-04        1.369e+03        9.296e+02        
                   2.500e+01       1                 
 129               2.995e-07        3.885e-07        5.022e-08        
                   5.004e-08        1.786e-07        9.394e-15        
                   2.995e-07        9.012e-08        1.211e-04        
                  -1.626e-04        1.345e+03        9.032e+02        
                   2.500e+01       1                 
 130               3.006e-07        3.898e-07        5.061e-08        
                   4.923e-08        1.799e-07        9.316e-15        
                   3.006e-07        8.932e-08        1.189e-04        
                  -1.679e-04        1.320e+03        9.327e+02        
                   2.500e+01       1                 
 131               3.009e-07        3.899e-07        4.984e-08        
                   4.996e-08        1.795e-07        9.259e-15        
                   3.009e-07        9.112e-08        1.237e-04        
                  -1.639e-04        1.374e+03        9.104e+02        
                   2.500e+01       1                 
 132               2.998e-07        3.879e-07        5.009e-08        
                   5.034e-08        1.776e-07        9.357e-15        
                   2.998e-07        9.055e-08        1.221e-04        
                  -1.603e-04        1.356e+03        8.906e+02        
                   2.500e+01       1                 
 133               3.006e-07        3.879e-07        5.004e-08        
                   4.999e-08        1.780e-07        9.568e-15        
                   3.006e-07        8.887e-08        1.198e-04        
                  -1.623e-04        1.331e+03        9.016e+02        
                   2.500e+01       1                 
 134               2.993e-07        3.897e-07        5.028e-08        
                   4.943e-08        1.798e-07        9.270e-15        
                   2.993e-07        9.146e-08        1.229e-04        
                  -1.668e-04        1.365e+03        9.266e+02        
                   2.500e+01       1                 
 135               3.001e-07        3.915e-07        5.030e-08        
                   5.007e-08        1.815e-07        9.468e-15        
                   3.001e-07        8.948e-08        1.200e-04        
                  -1.653e-04        1.332e+03        9.180e+02        
                   2.500e+01       1                 
 136               2.983e-07        3.900e-07        5.040e-08        
                   5.019e-08        1.796e-07        9.493e-15        
                   2.983e-07        8.823e-08        1.179e-04        
                  -1.629e-04        1.309e+03        9.048e+02        
                   2.500e+01       1                 
 137               2.987e-07        3.915e-07        4.992e-08        
                   5.009e-08        1.810e-07        9.538e-15        
                   2.987e-07        8.965e-08        1.213e-04        
                  -1.647e-04        1.347e+03        9.151e+02        
                   2.500e+01       1                 
 138               3.006e-07        3.920e-07        4.952e-08        
                   5.020e-08        1.818e-07        9.353e-15        
                   3.006e-07        8.908e-08        1.216e-04        
                  -1.649e-04        1.351e+03        9.161e+02        
                   2.500e+01       1                 
 139               3.004e-07        3.880e-07        5.028e-08        
                   4.928e-08        1.783e-07        9.505e-15        
                   3.004e-07        9.009e-08        1.209e-04        
                  -1.661e-04        1.343e+03        9.229e+02        
                   2.500e+01       1                 
 140               2.997e-07        3.896e-07        5.036e-08        
                   4.960e-08        1.797e-07        9.409e-15        
                   2.997e-07        8.968e-08        1.201e-04        
                  -1.658e-04        1.334e+03        9.211e+02        
                   2.500e+01       1                 
 141               2.988e-07        3.892e-07        4.991e-08        
                   4.939e-08        1.797e-07        9.462e-15        
                   2.988e-07        8.995e-08        1.218e-04        
                  -1.669e-04        1.352e+03        9.270e+02        
                   2.500e+01       1                 
 142               2.997e-07        3.889e-07        4.968e-08        
                   5.013e-08        1.791e-07        9.371e-15        
                   2.997e-07        8.937e-08        1.216e-04        
                  -1.627e-04        1.350e+03        9.037e+02        
                   2.500e+01       1                 
 143               2.997e-07        3.883e-07        4.992e-08        
                   5.037e-08        1.782e-07        9.499e-15        
                   2.997e-07        8.914e-08        1.206e-04        
                  -1.607e-04        1.339e+03        8.928e+02        
                   2.500e+01       1                 
 144               3.007e-07        3.905e-07        5.016e-08        
                   4.961e-08        1.800e-07        9.332e-15        
                   3.007e-07        9.009e-08        1.213e-04        
                  -1.661e-04        1.347e+03        9.225e+02        
                   2.500e+01       1                 
 145               2.984e-07        3.901e-07        5.027e-08        
                   5.003e-08        1.797e-07        9.368e-15        
                   2.984e-07        8.969e-08        1.204e-04        
                  -1.638e-04        1.337e+03        9.098e+02        
                   2.500e+01       1                 
 146               3.002e-07        3.886e-07        5.042e-08        
                   4.919e-08        1.785e-07        9.621e-15        
                   3.002e-07        9.008e-08        1.205e-04        
                  -1.667e-04        1.339e+03        9.260e+02        
                   2.500e+01       1                 
 147               3.018e-07        3.916e-07        4.958e-08        
                   5.004e-08        1.813e-07        9.580e-15        
                   3.018e-07        9.005e-08        1.229e-04        
                  -1.653e-04        1.365e+03        9.181e+02        
                   2.500e+01       1                 
 148               3.001e-07        3.908e-07        4.934e-08        
                   4.999e-08        1.808e-07        9.577e-15        
                   3.001e-07        8.907e-08        1.222e-04        
                  -1.650e-04        1.357e+03        9.165e+02        
                   2.500e+01       1                 
 149               3.005e-07        3.904e-07        5.024e-08        
                   4.970e-08        1.799e-07        9.545e-15        
                   3.005e-07        9.001e-08        1.209e-04        
                  -1.655e-04        1.343e+03        9.196e+02        
                   2.500e+01       1                 
 150               2.982e-07        3.913e-07        4.996e-08        
                   4.996e-08        1.812e-07        9.438e-15        
                   2.982e-07        8.893e-08        1.201e-04        
                  -1.655e-04        1.334e+03        9.195e+02        
                   2.500e+01       1                 
 151               3.014e-07        3.925e-07        4.999e-08        
                   4.936e-08        1.822e-07        9.446e-15        
                   3.014e-07        8.972e-08        1.212e-04        
                  -1.694e-04        1.346e+03        9.413e+02        
                   2.500e+01       1                 
 152               3.000e-07        3.890e-07        5.022e-08        
                   5.069e-08        1.793e-07        9.546e-15        
                   3.000e-07        8.926e-08        1.199e-04        
                  -1.603e-04        1.332e+03        8.907e+02        
                   2.500e+01       1                 
 153               2.992e-07        3.906e-07        5.020e-08        
                   4.995e-08        1.803e-07        9.474e-15        
                   2.992e-07        9.088e-08        1.223e-04        
                  -1.647e-04        1.358e+03        9.152e+02        
                   2.500e+01       1                 
 154               2.984e-07        3.888e-07        5.040e-08        
                   4.969e-08        1.785e-07        9.453e-15        
                   2.984e-07        8.875e-08        1.186e-04        
                  -1.643e-04        1.318e+03        9.126e+02        
                   2.500e+01       1                 
 155               2.998e-07        3.909e-07        4.967e-08        
                   5.003e-08        1.809e-07        9.441e-15        
                   2.998e-07        9.031e-08        1.230e-04        
                  -1.649e-04        1.366e+03        9.158e+02        
                   2.500e+01       1                 
 156               2.992e-07        3.910e-07        4.963e-08        
                   5.050e-08        1.814e-07        9.491e-15        
                   2.992e-07        8.861e-08        1.206e-04        
                  -1.632e-04        1.340e+03        9.064e+02        
                   2.500e+01       1                 
 157               3.005e-07        3.944e-07        5.059e-08        
                   4.998e-08        1.842e-07        9.365e-15        
                   3.005e-07        9.195e-08        1.227e-04        
                  -1.683e-04        1.363e+03        9.347e+02        
                   2.500e+01       1                 
 158               2.998e-07        3.884e-07        5.001e-08        
                   4.934e-08        1.773e-07        9.421e-15        
                   2.998e-07        9.036e-08        1.221e-04        
                  -1.648e-04        1.356e+03        9.153e+02        
                   2.500e+01       1                 
 159               2.996e-07        3.897e-07        4.970e-08        
                   4.978e-08        1.795e-07        9.582e-15        
                   2.996e-07        8.979e-08        1.221e-04        
                  -1.647e-04        1.357e+03        9.150e+02        
                   2.500e+01       1                 
 160               3.001e-07        3.925e-07        5.013e-08        
                   4.999e-08        1.821e-07        9.514e-15        
                   3.001e-07        9.000e-08        1.212e-04        
                  -1.662e-04        1.346e+03        9.233e+02        
                   2.500e+01       1                 
 161               3.013e-07        3.874e-07        5.014e-08        
                   4.964e-08        1.775e-07        9.346e-15        
                   3.013e-07        9.023e-08        1.215e-04        
                  -1.635e-04        1.349e+03        9.083e+02        
                   2.500e+01       1                 
 162               3.010e-07        3.922e-07        4.951e-08        
                   4.941e-08        1.821e-07        9.433e-15        
                   3.010e-07        8.971e-08        1.226e-04        
                  -1.690e-04        1.362e+03        9.391e+02        
                   2.500e+01       1                 
 163               2.997e-07        3.893e-07        4.962e-08        
                   4.972e-08        1.793e-07        9.436e-15        
                   2.997e-07        8.907e-08        1.213e-04        
                  -1.648e-04        1.347e+03        9.156e+02        
                   2.500e+01       1                 
 164               2.994e-07        3.891e-07        5.028e-08        
                   5.022e-08        1.795e-07        9.447e-15        
                   2.994e-07        8.991e-08        1.207e-04        
                  -1.627e-04        1.340e+03        9.037e+02        
                   2.500e+01       1                 
 165               3.012e-07        3.891e-07        5.050e-08        
                   4.985e-08        1.792e-07        9.585e-15        
                   3.012e-07        8.953e-08        1.195e-04        
                  -1.641e-04        1.327e+03        9.117e+02        
                   2.500e+01       1                 
 166               2.998e-07        3.905e-07        5.014e-08        
                   5.054e-08        1.798e-07        9.369e-15        
                   2.998e-07        9.075e-08        1.222e-04        
                  -1.615e-04        1.358e+03        8.972e+02        
                   2.500e+01       1                 
 167               2.984e-07        3.891e-07        5.009e-08        
                   5.020e-08        1.787e-07        9.359e-15        
                   2.984e-07        9.112e-08        1.229e-04        
                  -1.620e-04        1.366e+03        9.000e+02        
                   2.500e+01       1                 
 168               3.003e-07        3.885e-07        4.986e-08        
                   5.020e-08        1.780e-07        9.342e-15        
                   3.003e-07        9.012e-08        1.222e-04        
                  -1.614e-04        1.357e+03        8.965e+02        
                   2.500e+01       1                 
 169               3.001e-07        3.902e-07        4.989e-08        
                   5.009e-08        1.802e-07        9.303e-15        
                   3.001e-07        8.941e-08        1.210e-04        
                  -1.640e-04        1.344e+03        9.108e+02        
                   2.500e+01       1                 
 170               3.001e-07        3.914e-07        4.995e-08        
                   4.997e-08        1.812e-07        9.344e-15        
                   3.001e-07        8.969e-08        1.213e-04        
                  -1.654e-04        1.347e+03        9.191e+02        
                   2.500e+01       1                 
 171               3.008e-07        3.876e-07        4.986e-08        
                   5.014e-08        1.776e-07        9.399e-15        
                   3.008e-07        8.943e-08        1.211e-04        
                  -1.612e-04        1.345e+03        8.957e+02        
                   2.500e+01       1                 
 172               2.985e-07        3.910e-07        5.020e-08        
                   4.940e-08        1.810e-07        9.521e-15        
                   2.985e-07        9.020e-08        1.213e-04        
                  -1.681e-04        1.347e+03        9.338e+02        
                   2.500e+01       1                 
 173               2.979e-07        3.921e-07        5.001e-08        
                   4.997e-08        1.817e-07        9.546e-15        
                   2.979e-07        8.923e-08        1.204e-04        
                  -1.660e-04        1.338e+03        9.220e+02        
                   2.500e+01       1                 
 174               3.005e-07        3.915e-07        4.991e-08        
                   4.950e-08        1.811e-07        9.664e-15        
                   3.005e-07        8.959e-08        1.212e-04        
                  -1.677e-04        1.347e+03        9.318e+02        
                   2.500e+01       1                 
 175               2.992e-07        3.892e-07        5.017e-08        
                   5.033e-08        1.793e-07        9.431e-15        
                   2.992e-07        9.095e-08        1.225e-04        
                  -1.620e-04        1.360e+03        9.000e+02        
                   2.500e+01       1                 
 176               3.004e-07        3.915e-07        4.988e-08        
                   5.080e-08        1.818e-07        9.397e-15        
                   3.004e-07        8.965e-08        1.214e-04        
                  -1.622e-04        1.348e+03        9.008e+02        
                   2.500e+01       1                 
 177               3.008e-07        3.896e-07        4.954e-08        
                   5.029e-08        1.794e-07        9.540e-15        
                   3.008e-07        8.961e-08        1.223e-04        
                  -1.623e-04        1.359e+03        9.014e+02        
                   2.500e+01       1                 
 178               2.999e-07        3.904e-07        4.951e-08        
                   4.989e-08        1.810e-07        9.447e-15        
                   2.999e-07        8.995e-08        1.229e-04        
                  -1.657e-04        1.366e+03        9.205e+02        
                   2.500e+01       1                 
 179               2.990e-07        3.884e-07        5.000e-08        
                   4.998e-08        1.783e-07        9.461e-15        
                   2.990e-07        8.944e-08        1.208e-04        
                  -1.627e-04        1.341e+03        9.036e+02        
                   2.500e+01       1                 
 180               2.998e-07        3.901e-07        4.952e-08        
                   4.976e-08        1.800e-07        9.364e-15        
                   2.998e-07        9.022e-08        1.233e-04        
                  -1.654e-04        1.370e+03        9.186e+02        
                   2.500e+01       1                 
 181               3.010e-07        3.875e-07        4.989e-08        
                   5.031e-08        1.778e-07        9.397e-15        
                   3.010e-07        9.130e-08        1.238e-04        
                  -1.607e-04        1.375e+03        8.925e+02        
                   2.500e+01       1                 
 182               3.003e-07        3.893e-07        4.987e-08        
                   5.005e-08        1.795e-07        9.566e-15        
                   3.003e-07        8.923e-08        1.208e-04        
                  -1.635e-04        1.342e+03        9.081e+02        
                   2.500e+01       1                 
 183               2.989e-07        3.928e-07        5.009e-08        
                   4.938e-08        1.819e-07        9.459e-15        
                   2.989e-07        9.100e-08        1.228e-04        
                  -1.690e-04        1.364e+03        9.391e+02        
                   2.500e+01       1                 
 184               2.993e-07        3.912e-07        4.978e-08        
                   4.955e-08        1.812e-07        9.588e-15        
                   2.993e-07        9.148e-08        1.244e-04        
                  -1.676e-04        1.382e+03        9.309e+02        
                   2.500e+01       1                 
 185               2.999e-07        3.924e-07        4.998e-08        
                   4.948e-08        1.827e-07        9.361e-15        
                   2.999e-07        9.082e-08        1.229e-04        
                  -1.693e-04        1.365e+03        9.404e+02        
                   2.500e+01       1                 
 186               2.995e-07        3.879e-07        5.079e-08        
                   5.015e-08        1.776e-07        9.550e-15        
                   2.995e-07        8.992e-08        1.193e-04        
                  -1.612e-04        1.325e+03        8.958e+02        
                   2.500e+01       1                 
 187               2.996e-07        3.914e-07        5.040e-08        
                   5.030e-08        1.815e-07        9.411e-15        
                   2.996e-07        9.047e-08        1.211e-04        
                  -1.642e-04        1.345e+03        9.124e+02        
                   2.500e+01       1                 
 188               2.993e-07        3.904e-07        4.985e-08        
                   5.030e-08        1.802e-07        9.531e-15        
                   2.993e-07        9.077e-08        1.231e-04        
                  -1.629e-04        1.368e+03        9.050e+02        
                   2.500e+01       1                 
 189               3.018e-07        3.880e-07        5.060e-08        
                   4.925e-08        1.776e-07        9.567e-15        
                   3.018e-07        8.978e-08        1.196e-04        
                  -1.656e-04        1.328e+03        9.197e+02        
                   2.500e+01       1                 
 190               3.001e-07        3.900e-07        4.972e-08        
                   5.054e-08        1.800e-07        9.375e-15        
                   3.001e-07        9.015e-08        1.226e-04        
                  -1.617e-04        1.362e+03        8.982e+02        
                   2.500e+01       1                 
 191               3.001e-07        3.926e-07        5.004e-08        
                   4.969e-08        1.820e-07        9.371e-15        
                   3.001e-07        8.985e-08        1.213e-04        
                  -1.676e-04        1.347e+03        9.309e+02        
                   2.500e+01       1                 
 192               2.985e-07        3.928e-07        4.997e-08        
                   5.045e-08        1.833e-07        9.443e-15        
                   2.985e-07        9.050e-08        1.224e-04        
                  -1.652e-04        1.359e+03        9.177e+02        
                   2.500e+01       1                 
 193               3.004e-07        3.919e-07        5.033e-08        
                   5.024e-08        1.816e-07        9.330e-15        
                   3.004e-07        8.829e-08        1.181e-04        
                  -1.646e-04        1.312e+03        9.142e+02        
                   2.500e+01       1                 
 194               3.005e-07        3.896e-07        4.976e-08        
                   4.967e-08        1.795e-07        9.375e-15        
                   3.005e-07        9.086e-08        1.235e-04        
                  -1.653e-04        1.372e+03        9.184e+02        
                   2.500e+01       1                 
 195               3.014e-07        3.905e-07        5.050e-08        
                   5.050e-08        1.802e-07        9.456e-15        
                   3.014e-07        9.160e-08        1.225e-04        
                  -1.620e-04        1.360e+03        9.001e+02        
                   2.500e+01       1                 
 196               3.000e-07        3.926e-07        4.975e-08        
                   4.959e-08        1.825e-07        9.524e-15        
                   3.000e-07        9.015e-08        1.225e-04        
                  -1.686e-04        1.361e+03        9.366e+02        
                   2.500e+01       1                 
 197               2.999e-07        3.898e-07        5.038e-08        
                   5.011e-08        1.799e-07        9.416e-15        
                   2.999e-07        8.849e-08        1.183e-04        
                  -1.636e-04        1.314e+03        9.087e+02        
                   2.500e+01       1                 
 198               2.996e-07        3.898e-07        4.980e-08        
                   5.047e-08        1.800e-07        9.391e-15        
                   2.996e-07        9.037e-08        1.227e-04        
                  -1.620e-04        1.363e+03        8.999e+02        
                   2.500e+01       1                 
 199               2.991e-07        3.888e-07        4.994e-08        
                   5.003e-08        1.786e-07        9.488e-15        
                   2.991e-07        9.004e-08        1.218e-04        
                  -1.627e-04        1.353e+03        9.038e+02        
                   2.500e+01       1                 
 200               3.000e-07        3.926e-07        5.009e-08        
                   5.075e-08        1.821e-07        9.574e-15        
                   3.000e-07        8.958e-08        1.207e-04        
                  -1.627e-04        1.341e+03        9.036e+02        
                   2.500e+01       1                 
 201               2.990e-07        3.886e-07        5.048e-08        
                   4.925e-08        1.791e-07        9.409e-15        
                   2.990e-07        9.012e-08        1.204e-04        
                  -1.669e-04        1.337e+03        9.274e+02        
                   2.500e+01       1                 
 202               3.017e-07        3.913e-07        5.029e-08        
                   4.972e-08        1.813e-07        9.417e-15        
                   3.017e-07        8.914e-08        1.195e-04        
                  -1.668e-04        1.327e+03        9.264e+02        
                   2.500e+01       1                 
 203               3.014e-07        3.913e-07        5.022e-08        
                   4.999e-08        1.813e-07        9.498e-15        
                   3.014e-07        9.069e-08        1.220e-04        
                  -1.655e-04        1.355e+03        9.192e+02        
                   2.500e+01       1                 
 204               3.009e-07        3.883e-07        4.981e-08        
                   5.017e-08        1.785e-07        9.472e-15        
                   3.009e-07        9.041e-08        1.227e-04        
                  -1.619e-04        1.363e+03        8.996e+02        
                   2.500e+01       1                 
 205               3.000e-07        3.889e-07        4.991e-08        
                   4.969e-08        1.794e-07        9.453e-15        
                   3.000e-07        8.994e-08        1.218e-04        
                  -1.651e-04        1.352e+03        9.171e+02        
                   2.500e+01       1                 
 206               3.005e-07        3.924e-07        4.990e-08        
                   5.046e-08        1.824e-07        9.401e-15        
                   3.005e-07        8.998e-08        1.218e-04        
                  -1.643e-04        1.353e+03        9.127e+02        
                   2.500e+01       1                 
 207               3.006e-07        3.908e-07        4.998e-08        
                   5.002e-08        1.813e-07        9.382e-15        
                   3.006e-07        8.924e-08        1.205e-04        
                  -1.653e-04        1.339e+03        9.185e+02        
                   2.500e+01       1                 
 208               2.985e-07        3.882e-07        4.987e-08        
                   4.995e-08        1.783e-07        9.491e-15        
                   2.985e-07        9.000e-08        1.220e-04        
                  -1.628e-04        1.355e+03        9.044e+02        
                   2.500e+01       1                 
 209               3.000e-07        3.872e-07        4.920e-08        
                   4.997e-08        1.777e-07        9.639e-15        
                   3.000e-07        9.170e-08        1.265e-04        
                  -1.621e-04        1.405e+03        9.007e+02        
                   2.500e+01       1                 
 210               3.007e-07        3.912e-07        5.033e-08        
                   4.978e-08        1.815e-07        9.347e-15        
                   3.007e-07        8.932e-08        1.196e-04        
                  -1.667e-04        1.329e+03        9.259e+02        
                   2.500e+01       1                 
 211               2.994e-07        3.901e-07        5.014e-08        
                   5.042e-08        1.797e-07        9.523e-15        
                   2.994e-07        8.897e-08        1.197e-04        
                  -1.619e-04        1.329e+03        8.993e+02        
                   2.500e+01       1                 
 212               2.992e-07        3.888e-07        4.957e-08        
                   4.953e-08        1.788e-07        9.504e-15        
                   2.992e-07        9.051e-08        1.236e-04        
                  -1.653e-04        1.373e+03        9.181e+02        
                   2.500e+01       1                 
 213               3.006e-07        3.887e-07        4.997e-08        
                   5.042e-08        1.780e-07        9.313e-15        
                   3.006e-07        9.094e-08        1.230e-04        
                  -1.603e-04        1.367e+03        8.906e+02        
                   2.500e+01       1                 
 214               3.004e-07        3.905e-07        4.964e-08        
                   5.032e-08        1.807e-07        9.349e-15        
                   3.004e-07        9.011e-08        1.228e-04        
                  -1.634e-04        1.364e+03        9.076e+02        
                   2.500e+01       1                 
 215               3.002e-07        3.898e-07        4.953e-08        
                   5.005e-08        1.797e-07        9.397e-15        
                   3.002e-07        8.999e-08        1.229e-04        
                  -1.637e-04        1.365e+03        9.091e+02        
                   2.500e+01       1                 
 216               3.005e-07        3.919e-07        4.954e-08        
                   5.005e-08        1.815e-07        9.613e-15        
                   3.005e-07        9.092e-08        1.243e-04        
                  -1.653e-04        1.381e+03        9.184e+02        
                   2.500e+01       1                 
 217               2.992e-07        3.922e-07        4.990e-08        
                   5.069e-08        1.820e-07        9.278e-15        
                   2.992e-07        9.034e-08        1.224e-04        
                  -1.629e-04        1.359e+03        9.049e+02        
                   2.500e+01       1                 
 218               3.000e-07        3.923e-07        5.013e-08        
                   5.039e-08        1.819e-07        9.451e-15        
                   3.000e-07        8.932e-08        1.202e-04        
                  -1.641e-04        1.335e+03        9.115e+02        
                   2.500e+01       1                 
 219               2.983e-07        3.895e-07        5.005e-08        
                   4.983e-08        1.795e-07        9.395e-15        
                   2.983e-07        9.006e-08        1.215e-04        
                  -1.645e-04        1.350e+03        9.141e+02        
                   2.500e+01       1                 
 220               2.996e-07        3.902e-07        5.010e-08        
                   4.983e-08        1.798e-07        9.587e-15        
                   2.996e-07        9.018e-08        1.215e-04        
                  -1.648e-04        1.350e+03        9.154e+02        
                   2.500e+01       1                 
 221               2.995e-07        3.880e-07        5.029e-08        
                   5.050e-08        1.776e-07        9.544e-15        
                   2.995e-07        8.974e-08        1.204e-04        
                  -1.595e-04        1.337e+03        8.863e+02        
                   2.500e+01       1                 
 222               3.008e-07        3.907e-07        4.954e-08        
                   5.029e-08        1.810e-07        9.648e-15        
                   3.008e-07        9.012e-08        1.231e-04        
                  -1.637e-04        1.367e+03        9.095e+02        
                   2.500e+01       1                 
 223               3.010e-07        3.908e-07        5.001e-08        
                   5.009e-08        1.811e-07        9.383e-15        
                   3.010e-07        9.172e-08        1.241e-04        
                  -1.647e-04        1.378e+03        9.151e+02        
                   2.500e+01       1                 
 224               3.003e-07        3.877e-07        5.020e-08        
                   5.042e-08        1.774e-07        9.508e-15        
                   3.003e-07        8.891e-08        1.194e-04        
                  -1.597e-04        1.326e+03        8.871e+02        
                   2.500e+01       1                 
 225               2.991e-07        3.889e-07        4.932e-08        
                   5.009e-08        1.783e-07        9.442e-15        
                   2.991e-07        9.037e-08        1.241e-04        
                  -1.621e-04        1.379e+03        9.006e+02        
                   2.500e+01       1                 
 226               2.989e-07        3.898e-07        4.986e-08        
                   4.975e-08        1.800e-07        9.451e-15        
                   2.989e-07        9.023e-08        1.223e-04        
                  -1.653e-04        1.359e+03        9.184e+02        
                   2.500e+01       1                 
 227               2.989e-07        3.907e-07        5.072e-08        
                   5.026e-08        1.800e-07        9.413e-15        
                   2.989e-07        9.116e-08        1.212e-04        
                  -1.629e-04        1.347e+03        9.051e+02        
                   2.500e+01       1                 
 228               2.991e-07        3.877e-07        5.024e-08        
                   4.995e-08        1.776e-07        9.346e-15        
                   2.991e-07        8.879e-08        1.191e-04        
                  -1.621e-04        1.323e+03        9.005e+02        
                   2.500e+01       1                 
 229               3.003e-07        3.871e-07        5.044e-08        
                   4.996e-08        1.777e-07        9.529e-15        
                   3.003e-07        8.999e-08        1.203e-04        
                  -1.622e-04        1.336e+03        9.009e+02        
                   2.500e+01       1                 
 230               3.011e-07        3.864e-07        5.029e-08        
                   4.992e-08        1.757e-07        9.486e-15        
                   3.011e-07        8.963e-08        1.202e-04        
                  -1.605e-04        1.335e+03        8.914e+02        
                   2.500e+01       1                 
 231               3.003e-07        3.884e-07        4.962e-08        
                   5.049e-08        1.788e-07        9.498e-15        
                   3.003e-07        8.925e-08        1.216e-04        
                  -1.608e-04        1.350e+03        8.931e+02        
                   2.500e+01       1                 
 232               2.991e-07        3.894e-07        5.009e-08        
                   4.997e-08        1.794e-07        9.471e-15        
                   2.991e-07        9.159e-08        1.236e-04        
                  -1.638e-04        1.373e+03        9.098e+02        
                   2.500e+01       1                 
 233               2.999e-07        3.881e-07        4.939e-08        
                   5.034e-08        1.779e-07        9.431e-15        
                   2.999e-07        8.957e-08        1.227e-04        
                  -1.606e-04        1.363e+03        8.922e+02        
                   2.500e+01       1                 
 234               3.009e-07        3.875e-07        5.051e-08        
                   4.931e-08        1.775e-07        9.453e-15        
                   3.009e-07        9.050e-08        1.209e-04        
                  -1.651e-04        1.342e+03        9.174e+02        
                   2.500e+01       1                 
 235               2.996e-07        3.918e-07        4.984e-08        
                   4.966e-08        1.817e-07        9.345e-15        
                   2.996e-07        8.982e-08        1.218e-04        
                  -1.675e-04        1.353e+03        9.302e+02        
                   2.500e+01       1                 
 236               3.000e-07        3.915e-07        5.066e-08        
                   5.055e-08        1.812e-07        9.383e-15        
[...]
                   2.500e+01       1                 
 2442              2.999e-07        3.924e-07        5.062e-08        
                   4.988e-08        1.817e-07        9.426e-15        
                   2.999e-07        9.068e-08        1.208e-04        
                  -1.664e-04        1.342e+03        9.242e+02        
                   2.500e+01       1                 
 2443              3.004e-07        3.899e-07        4.928e-08        
                   4.930e-08        1.796e-07        9.431e-15        
                   3.004e-07        8.975e-08        1.233e-04        
                  -1.672e-04        1.370e+03        9.289e+02        
                   2.500e+01       1                 
 2444              2.984e-07        3.891e-07        4.972e-08        
                   4.970e-08        1.792e-07        9.499e-15        
                   2.984e-07        8.983e-08        1.221e-04        
                  -1.648e-04        1.357e+03        9.158e+02        
                   2.500e+01       1                 
 2445              2.983e-07        3.928e-07        4.998e-08        
                   5.055e-08        1.826e-07        9.355e-15        
                   2.983e-07        8.952e-08        1.209e-04        
                  -1.641e-04        1.343e+03        9.115e+02        
                   2.500e+01       1                 
 2446              2.993e-07        3.885e-07        5.054e-08        
                   4.946e-08        1.785e-07        9.377e-15        
                   2.993e-07        8.938e-08        1.191e-04        
                  -1.653e-04        1.323e+03        9.183e+02        
                   2.500e+01       1                 
 2447              3.002e-07        3.927e-07        5.046e-08        
                   4.972e-08        1.833e-07        9.453e-15        
                   3.002e-07        8.932e-08        1.193e-04        
                  -1.687e-04        1.325e+03        9.370e+02        
                   2.500e+01       1                 
 2448              2.991e-07        3.890e-07        5.011e-08        
                   4.981e-08        1.794e-07        9.522e-15        
                   2.991e-07        9.135e-08        1.232e-04        
                  -1.645e-04        1.369e+03        9.137e+02        
                   2.500e+01       1                 
 2449              2.987e-07        3.899e-07        5.025e-08        
                   4.986e-08        1.798e-07        9.528e-15        
                   2.987e-07        9.064e-08        1.218e-04        
                  -1.647e-04        1.353e+03        9.150e+02        
                   2.500e+01       1                 
 2450              3.002e-07        3.902e-07        4.960e-08        
                   5.000e-08        1.798e-07        9.535e-15        
                   3.002e-07        9.162e-08        1.251e-04        
                  -1.640e-04        1.390e+03        9.112e+02        
                   2.500e+01       1                 
 2451              2.988e-07        3.931e-07        4.982e-08        
                   5.002e-08        1.826e-07        9.363e-15        
                   2.988e-07        9.131e-08        1.240e-04        
                  -1.666e-04        1.377e+03        9.253e+02        
                   2.500e+01       1                 
 2452              2.999e-07        3.921e-07        5.049e-08        
                   5.029e-08        1.815e-07        9.396e-15        
                   2.999e-07        9.006e-08        1.203e-04        
                  -1.643e-04        1.336e+03        9.126e+02        
                   2.500e+01       1                 
 2453              3.005e-07        3.910e-07        5.000e-08        
                   4.947e-08        1.809e-07        9.469e-15        
                   3.005e-07        8.910e-08        1.203e-04        
                  -1.676e-04        1.336e+03        9.313e+02        
                   2.500e+01       1                 
 2454              3.006e-07        3.896e-07        5.020e-08        
                   4.975e-08        1.792e-07        9.452e-15        
                   3.006e-07        9.174e-08        1.235e-04        
                  -1.647e-04        1.372e+03        9.148e+02        
                   2.500e+01       1                 
 2455              2.996e-07        3.907e-07        5.011e-08        
                   4.943e-08        1.798e-07        9.416e-15        
                   2.996e-07        9.137e-08        1.233e-04        
                  -1.668e-04        1.369e+03        9.265e+02        
                   2.500e+01       1                 
 2456              3.006e-07        3.882e-07        5.048e-08        
                   5.053e-08        1.783e-07        9.480e-15        
                   3.006e-07        9.045e-08        1.209e-04        
                  -1.601e-04        1.343e+03        8.893e+02        
                   2.500e+01       1                 
 2457              3.017e-07        3.904e-07        5.046e-08        
                   5.009e-08        1.807e-07        9.599e-15        
                   3.017e-07        8.985e-08        1.201e-04        
                  -1.644e-04        1.333e+03        9.132e+02        
                   2.500e+01       1                 
 2458              3.011e-07        3.878e-07        4.932e-08        
                   5.056e-08        1.784e-07        9.436e-15        
                   3.011e-07        9.009e-08        1.237e-04        
                  -1.601e-04        1.374e+03        8.891e+02        
                   2.500e+01       1                 
 2459              3.009e-07        3.911e-07        5.033e-08        
                   5.052e-08        1.813e-07        9.365e-15        
                   3.009e-07        9.035e-08        1.211e-04        
                  -1.630e-04        1.346e+03        9.054e+02        
                   2.500e+01       1                 
 2460              3.009e-07        3.903e-07        4.994e-08        
                   4.967e-08        1.810e-07        9.664e-15        
                   3.009e-07        8.999e-08        1.217e-04        
                  -1.667e-04        1.352e+03        9.259e+02        
                   2.500e+01       1                 
 2461              3.008e-07        3.938e-07        4.968e-08        
                   4.964e-08        1.834e-07        9.366e-15        
                   3.008e-07        8.943e-08        1.217e-04        
                  -1.692e-04        1.351e+03        9.398e+02        
                   2.500e+01       1                 
 2462              3.006e-07        3.862e-07        4.990e-08        
                   4.974e-08        1.762e-07        9.350e-15        
                   3.006e-07        9.058e-08        1.227e-04        
                  -1.618e-04        1.363e+03        8.990e+02        
                   2.500e+01       1                 
 2463              3.002e-07        3.905e-07        4.978e-08        
                   5.015e-08        1.805e-07        9.357e-15        
                   3.002e-07        8.981e-08        1.219e-04        
                  -1.639e-04        1.355e+03        9.107e+02        
                   2.500e+01       1                 
 2464              3.014e-07        3.894e-07        5.036e-08        
                   5.002e-08        1.798e-07        9.546e-15        
                   3.014e-07        9.142e-08        1.226e-04        
                  -1.639e-04        1.362e+03        9.105e+02        
                   2.500e+01       1                 
 2465              3.023e-07        3.900e-07        5.051e-08        
                   4.987e-08        1.801e-07        9.540e-15        
                   3.023e-07        9.003e-08        1.202e-04        
                  -1.649e-04        1.335e+03        9.160e+02        
                   2.500e+01       1                 
 2466              2.991e-07        3.919e-07        5.053e-08        
                   4.998e-08        1.816e-07        9.419e-15        
                   2.991e-07        8.941e-08        1.192e-04        
                  -1.658e-04        1.324e+03        9.212e+02        
                   2.500e+01       1                 
 2467              2.990e-07        3.909e-07        4.990e-08        
                   4.995e-08        1.808e-07        9.638e-15        
                   2.990e-07        8.954e-08        1.212e-04        
                  -1.651e-04        1.346e+03        9.173e+02        
                   2.500e+01       1                 
 2468              3.004e-07        3.876e-07        5.032e-08        
                   5.030e-08        1.776e-07        9.373e-15        
                   3.004e-07        8.994e-08        1.206e-04        
                  -1.605e-04        1.339e+03        8.914e+02        
                   2.500e+01       1                 
 2469              3.003e-07        3.911e-07        5.028e-08        
                   4.996e-08        1.801e-07        9.415e-15        
                   3.003e-07        8.975e-08        1.204e-04        
                  -1.645e-04        1.338e+03        9.137e+02        
                   2.500e+01       1                 
 2470              2.992e-07        3.906e-07        5.016e-08        
                   4.992e-08        1.808e-07        9.660e-15        
                   2.992e-07        8.924e-08        1.200e-04        
                  -1.654e-04        1.333e+03        9.187e+02        
                   2.500e+01       1                 
 2471              3.009e-07        3.923e-07        5.054e-08        
                   5.039e-08        1.829e-07        9.268e-15        
                   3.009e-07        9.047e-08        1.207e-04        
                  -1.651e-04        1.341e+03        9.170e+02        
                   2.500e+01       1                 
 2472              2.991e-07        3.884e-07        5.056e-08        
                   5.013e-08        1.784e-07        9.482e-15        
                   2.991e-07        8.984e-08        1.198e-04        
                  -1.620e-04        1.330e+03        9.002e+02        
                   2.500e+01       1                 
 2473              3.007e-07        3.874e-07        5.014e-08        
                   4.978e-08        1.776e-07        9.509e-15        
                   3.007e-07        9.037e-08        1.217e-04        
                  -1.630e-04        1.352e+03        9.052e+02        
                   2.500e+01       1                 
 2474              2.985e-07        3.905e-07        5.019e-08        
                   4.967e-08        1.807e-07        9.467e-15        
                   2.985e-07        8.964e-08        1.205e-04        
                  -1.664e-04        1.339e+03        9.246e+02        
                   2.500e+01       1                 
 2475              2.993e-07        3.887e-07        5.047e-08        
                   4.965e-08        1.792e-07        9.220e-15        
                   2.993e-07        8.897e-08        1.188e-04        
                  -1.651e-04        1.319e+03        9.172e+02        
                   2.500e+01       1                 
 2476              2.993e-07        3.911e-07        4.993e-08        
                   4.965e-08        1.815e-07        9.417e-15        
                   2.993e-07        8.970e-08        1.213e-04        
                  -1.674e-04        1.348e+03        9.297e+02        
                   2.500e+01       1                 
 2477              3.010e-07        3.902e-07        5.043e-08        
                   5.039e-08        1.804e-07        9.308e-15        
                   3.010e-07        9.166e-08        1.228e-04        
                  -1.627e-04        1.363e+03        9.038e+02        
                   2.500e+01       1                 
 2478              3.004e-07        3.904e-07        5.003e-08        
                   4.950e-08        1.807e-07        9.344e-15        
                   3.004e-07        9.126e-08        1.233e-04        
                  -1.673e-04        1.370e+03        9.293e+02        
                   2.500e+01       1                 
 2479              2.997e-07        3.876e-07        4.999e-08        
                   5.002e-08        1.777e-07        9.469e-15        
                   2.997e-07        8.975e-08        1.213e-04        
                  -1.619e-04        1.347e+03        8.994e+02        
                   2.500e+01       1                 
 2480              2.996e-07        3.906e-07        4.943e-08        
                   5.009e-08        1.804e-07        9.386e-15        
                   2.996e-07        8.959e-08        1.226e-04        
                  -1.641e-04        1.362e+03        9.117e+02        
                   2.500e+01       1                 
 2481              3.013e-07        3.937e-07        4.969e-08        
                   5.024e-08        1.841e-07        9.423e-15        
                   3.013e-07        8.856e-08        1.204e-04        
                  -1.670e-04        1.337e+03        9.275e+02        
                   2.500e+01       1                 
 2482              3.012e-07        3.875e-07        5.062e-08        
                   4.996e-08        1.771e-07        9.318e-15        
                   3.012e-07        9.042e-08        1.204e-04        
                  -1.616e-04        1.338e+03        8.977e+02        
                   2.500e+01       1                 
 2483              3.003e-07        3.906e-07        4.949e-08        
                   4.987e-08        1.810e-07        9.410e-15        
                   3.003e-07        9.105e-08        1.246e-04        
                  -1.657e-04        1.384e+03        9.206e+02        
                   2.500e+01       1                 
 2484              3.013e-07        3.892e-07        5.027e-08        
                   5.023e-08        1.799e-07        9.288e-15        
                   3.013e-07        8.858e-08        1.187e-04        
                  -1.630e-04        1.319e+03        9.056e+02        
                   2.500e+01       1                 
 2485              2.985e-07        3.899e-07        5.097e-08        
                   5.033e-08        1.798e-07        9.507e-15        
                   2.985e-07        8.910e-08        1.176e-04        
                  -1.624e-04        1.306e+03        9.023e+02        
                   2.500e+01       1                 
 2486              2.993e-07        3.910e-07        5.039e-08        
                   4.998e-08        1.803e-07        9.468e-15        
                   2.993e-07        8.842e-08        1.182e-04        
                  -1.646e-04        1.313e+03        9.143e+02        
                   2.500e+01       1                 
 2487              3.001e-07        3.899e-07        4.972e-08        
                   5.033e-08        1.803e-07        9.350e-15        
                   3.001e-07        9.086e-08        1.237e-04        
                  -1.629e-04        1.374e+03        9.050e+02        
                   2.500e+01       1                 
 2488              2.981e-07        3.894e-07        5.025e-08        
                   4.983e-08        1.793e-07        9.401e-15        
                   2.981e-07        9.088e-08        1.222e-04        
                  -1.643e-04        1.357e+03        9.128e+02        
                   2.500e+01       1                 
 2489              3.023e-07        3.900e-07        4.991e-08        
                   5.007e-08        1.803e-07        9.359e-15        
                   3.023e-07        8.757e-08        1.183e-04        
                  -1.641e-04        1.314e+03        9.117e+02        
                   2.500e+01       1                 
 2490              3.011e-07        3.911e-07        5.031e-08        
                   5.043e-08        1.809e-07        9.366e-15        
                   3.011e-07        9.087e-08        1.220e-04        
                  -1.630e-04        1.355e+03        9.054e+02        
                   2.500e+01       1                 
 2491              2.995e-07        3.932e-07        4.978e-08        
                   5.005e-08        1.826e-07        9.475e-15        
                   2.995e-07        8.952e-08        1.215e-04        
                  -1.665e-04        1.350e+03        9.247e+02        
                   2.500e+01       1                 
 2492              3.003e-07        3.878e-07        5.012e-08        
                   4.988e-08        1.779e-07        9.472e-15        
                   3.003e-07        9.107e-08        1.228e-04        
                  -1.627e-04        1.364e+03        9.038e+02        
                   2.500e+01       1                 
 2493              3.005e-07        3.908e-07        4.998e-08        
                   4.948e-08        1.807e-07        9.562e-15        
                   3.005e-07        8.933e-08        1.206e-04        
                  -1.674e-04        1.340e+03        9.299e+02        
                   2.500e+01       1                 
 2494              3.005e-07        3.921e-07        4.978e-08        
                   5.040e-08        1.822e-07        9.400e-15        
                   3.005e-07        8.887e-08        1.206e-04        
                  -1.644e-04        1.339e+03        9.132e+02        
                   2.500e+01       1                 
 2495              3.007e-07        3.894e-07        5.069e-08        
                   4.935e-08        1.796e-07        9.396e-15        
                   3.007e-07        9.050e-08        1.204e-04        
                  -1.670e-04        1.337e+03        9.278e+02        
                   2.500e+01       1                 
 2496              2.992e-07        3.914e-07        5.046e-08        
                   5.046e-08        1.817e-07        9.542e-15        
                   2.992e-07        9.078e-08        1.214e-04        
                  -1.636e-04        1.349e+03        9.090e+02        
                   2.500e+01       1                 
 2497              3.000e-07        3.884e-07        5.066e-08        
                   5.027e-08        1.785e-07        9.459e-15        
                   3.000e-07        8.904e-08        1.183e-04        
                  -1.615e-04        1.314e+03        8.973e+02        
                   2.500e+01       1                 
 2498              3.021e-07        3.899e-07        4.944e-08        
                   5.010e-08        1.807e-07        9.397e-15        
                   3.021e-07        9.114e-08        1.249e-04        
                  -1.643e-04        1.387e+03        9.129e+02        
                   2.500e+01       1                 
 2499              2.987e-07        3.897e-07        5.040e-08        
                   5.066e-08        1.797e-07        9.414e-15        
                   2.987e-07        8.908e-08        1.191e-04        
                  -1.608e-04        1.323e+03        8.936e+02        
                   2.500e+01       1                 
 2500              2.999e-07        3.861e-07        5.014e-08        
                   4.992e-08        1.764e-07        9.569e-15        
                   2.999e-07        8.915e-08        1.199e-04        
                  -1.611e-04        1.332e+03        8.950e+02        
                   2.500e+01       1                 
