***** HSPICE -- I-2013.12-SP1 64-BIT (Feb 25 2014) RHEL64 ******
 Input File: mos_ion_monte.sp
 lic:
 lic: FLEXlm: v10.9.8
 lic: USER:   2015104069           HOSTNAME: vlsi-dist.khu.ac.kr
 lic: HOSTID: 382c4ac7d475         PID:      22923
 lic: Using FLEXlm license file:
 lic: 27020@163.180.118.27
 lic: Checkout 1 hspice
 lic: License/Maintenance for hspice will expire on 30-jun-2020/2018.09
 lic: 1(in_use)/7(total) FLOATING license(s) on SERVER 27020@163.180.118.27
 lic:
 init: begin read circuit files,  cpu clock=  1.90E+01
       option search = /Tools/Synopsys/Hspice/hspice/parts/ad
       option search = /Tools/Synopsys/Hspice/hspice/parts/ad
       option search = /Tools/Synopsys/Hspice/hspice/parts/behave
       option search = /Tools/Synopsys/Hspice/hspice/parts/bjt
       option search = /Tools/Synopsys/Hspice/hspice/parts/burr_brn
       option search = /Tools/Synopsys/Hspice/hspice/parts/comlinear
       option search = /Tools/Synopsys/Hspice/hspice/parts/dio
       option search = /Tools/Synopsys/Hspice/hspice/parts/fet
       option search = /Tools/Synopsys/Hspice/hspice/parts/lin_tech
       option search = /Tools/Synopsys/Hspice/hspice/parts/pci
       option search = /Tools/Synopsys/Hspice/hspice/parts/signet
       option search = /Tools/Synopsys/Hspice/hspice/parts/ti
       option search = /Tools/Synopsys/Hspice/hspice/parts/tline
       option search = /Tools/Synopsys/Hspice/hspice/parts/xilinx
       option runlvl
       option artist =     2.00
       option ingold =     2.00
       option parhier = local
       option psf =     2.00
       option delmax =    1.000E-09
 init: end read circuit files,  cpu clock=  1.90E+01 peak memory=       172 mb
 init: begin check errors,  cpu clock=  1.90E+01
 init: end check errors,  cpu clock=  1.90E+01 peak memory=       173 mb
 init: begin setup matrix, pivot=     0 cpu clock=  1.90E+01
       establish matrix -- done,  cpu clock=  1.90E+01 peak memory=       173 mb
       re-order matrix -- done,  cpu clock=  1.90E+01 peak memory=       173 mb
 init: end setup matrix,  cpu clock=  1.90E+01 peak memory=       173 mb
 sweep: monte_carlo     monte_carlo1     begin, #sweeps =2500
 sweep: dc dc1    begin, #sweeps= 111 cpu clock=  1.90E+01
 sweep: dc dc1    end,  cpu clock=  1.90E+01 peak memory=       173 mb
 sweep: dc dc2    begin, #sweeps= 111 cpu clock=  1.90E+01
 sweep: dc dc2    end,  cpu clock=  1.90E+01 peak memory=       173 mb
 sweep: dc dc3    begin, #sweeps= 111 cpu clock=  1.90E+01
 sweep: dc dc3    end,  cpu clock=  1.90E+01 peak memory=       173 mb
 sweep: dc dc4    begin, #sweeps= 111 cpu clock=  1.90E+01
 sweep: dc dc4    end,  cpu clock=  1.90E+01 peak memory=       173 mb
 sweep: dc dc5    begin, #sweeps= 111 cpu clock=  1.90E+01
 sweep: dc dc5    end,  cpu clock=  1.90E+01 peak memory=       173 mb
 sweep: dc dc6    begin, #sweeps= 111 cpu clock=  1.90E+01
 sweep: dc dc6    end,  cpu clock=  1.90E+01 peak memory=       173 mb
 sweep: dc dc7    begin, #sweeps= 111 cpu clock=  1.90E+01
 sweep: dc dc7    end,  cpu clock=  1.90E+01 peak memory=       173 mb
 sweep: dc dc8    begin, #sweeps= 111 cpu clock=  1.90E+01
 sweep: dc dc8    end,  cpu clock=  1.90E+01 peak memory=       173 mb
 sweep: dc dc9    begin, #sweeps= 111 cpu clock=  1.90E+01
 sweep: dc dc9    end,  cpu clock=  1.90E+01 peak memory=       173 mb
 sweep: dc dc10   begin, #sweeps= 111 cpu clock=  1.90E+01
 sweep: dc dc10   end,  cpu clock=  1.90E+01 peak memory=       173 mb
 sweep: dc dc11   begin, #sweeps= 111 cpu clock=  1.90E+01
 sweep: dc dc11   end,  cpu clock=  1.90E+01 peak memory=       173 mb
 sweep: dc dc12   begin, #sweeps= 111 cpu clock=  1.90E+01
 sweep: dc dc12   end,  cpu clock=  1.90E+01 peak memory=       173 mb
 sweep: dc dc13   begin, #sweeps= 111 cpu clock=  1.90E+01
 sweep: dc dc13   end,  cpu clock=  1.90E+01 peak memory=       173 mb
 sweep: dc dc14   begin, #sweeps= 111 cpu clock=  1.90E+01
 sweep: dc dc14   end,  cpu clock=  1.90E+01 peak memory=       173 mb
 sweep: dc dc15   begin, #sweeps= 111 cpu clock=  1.90E+01
 sweep: dc dc15   end,  cpu clock=  1.90E+01 peak memory=       173 mb
 sweep: dc dc16   begin, #sweeps= 111 cpu clock=  1.90E+01
 sweep: dc dc16   end,  cpu clock=  1.90E+01 peak memory=       173 mb
 sweep: dc dc17   begin, #sweeps= 111 cpu clock=  1.90E+01
 sweep: dc dc17   end,  cpu clock=  1.90E+01 peak memory=       173 mb
 sweep: dc dc18   begin, #sweeps= 111 cpu clock=  1.90E+01
 sweep: dc dc18   end,  cpu clock=  1.90E+01 peak memory=       173 mb
 sweep: dc dc19   begin, #sweeps= 111 cpu clock=  1.91E+01
 sweep: dc dc19   end,  cpu clock=  1.91E+01 peak memory=       173 mb
 sweep: dc dc20   begin, #sweeps= 111 cpu clock=  1.91E+01
 sweep: dc dc20   end,  cpu clock=  1.91E+01 peak memory=       173 mb
 sweep: dc dc21   begin, #sweeps= 111 cpu clock=  1.91E+01
 sweep: dc dc21   end,  cpu clock=  1.91E+01 peak memory=       173 mb
 sweep: dc dc22   begin, #sweeps= 111 cpu clock=  1.91E+01
 sweep: dc dc22   end,  cpu clock=  1.91E+01 peak memory=       173 mb
 sweep: dc dc23   begin, #sweeps= 111 cpu clock=  1.91E+01
 sweep: dc dc23   end,  cpu clock=  1.91E+01 peak memory=       173 mb
 sweep: dc dc24   begin, #sweeps= 111 cpu clock=  1.91E+01
 sweep: dc dc24   end,  cpu clock=  1.91E+01 peak memory=       173 mb
 sweep: dc dc25   begin, #sweeps= 111 cpu clock=  1.91E+01
 sweep: dc dc25   end,  cpu clock=  1.91E+01 peak memory=       173 mb
 sweep: dc dc26   begin, #sweeps= 111 cpu clock=  1.91E+01
 sweep: dc dc26   end,  cpu clock=  1.91E+01 peak memory=       173 mb
 sweep: dc dc27   begin, #sweeps= 111 cpu clock=  1.91E+01
 sweep: dc dc27   end,  cpu clock=  1.91E+01 peak memory=       173 mb
 sweep: dc dc28   begin, #sweeps= 111 cpu clock=  1.91E+01
 sweep: dc dc28   end,  cpu clock=  1.91E+01 peak memory=       173 mb
 sweep: dc dc29   begin, #sweeps= 111 cpu clock=  1.91E+01
 sweep: dc dc29   end,  cpu clock=  1.91E+01 peak memory=       173 mb
 sweep: dc dc30   begin, #sweeps= 111 cpu clock=  1.91E+01
 sweep: dc dc30   end,  cpu clock=  1.91E+01 peak memory=       173 mb
 sweep: dc dc31   begin, #sweeps= 111 cpu clock=  1.91E+01
 sweep: dc dc31   end,  cpu clock=  1.91E+01 peak memory=       173 mb
 sweep: dc dc32   begin, #sweeps= 111 cpu clock=  1.91E+01
 sweep: dc dc32   end,  cpu clock=  1.91E+01 peak memory=       173 mb
 sweep: dc dc33   begin, #sweeps= 111 cpu clock=  1.91E+01
 sweep: dc dc33   end,  cpu clock=  1.91E+01 peak memory=       173 mb
 sweep: dc dc34   begin, #sweeps= 111 cpu clock=  1.91E+01
 sweep: dc dc34   end,  cpu clock=  1.91E+01 peak memory=       173 mb
 sweep: dc dc35   begin, #sweeps= 111 cpu clock=  1.91E+01
 sweep: dc dc35   end,  cpu clock=  1.91E+01 peak memory=       173 mb
 sweep: dc dc36   begin, #sweeps= 111 cpu clock=  1.91E+01
 sweep: dc dc36   end,  cpu clock=  1.91E+01 peak memory=       173 mb
 sweep: dc dc37   begin, #sweeps= 111 cpu clock=  1.91E+01
 sweep: dc dc37   end,  cpu clock=  1.91E+01 peak memory=       173 mb
 sweep: dc dc38   begin, #sweeps= 111 cpu clock=  1.91E+01
 sweep: dc dc38   end,  cpu clock=  1.91E+01 peak memory=       173 mb
 sweep: dc dc39   begin, #sweeps= 111 cpu clock=  1.91E+01
 sweep: dc dc39   end,  cpu clock=  1.91E+01 peak memory=       173 mb
 sweep: dc dc40   begin, #sweeps= 111 cpu clock=  1.91E+01
 sweep: dc dc40   end,  cpu clock=  1.91E+01 peak memory=       173 mb
 sweep: dc dc41   begin, #sweeps= 111 cpu clock=  1.91E+01
 sweep: dc dc41   end,  cpu clock=  1.91E+01 peak memory=       173 mb
 sweep: dc dc42   begin, #sweeps= 111 cpu clock=  1.91E+01
 sweep: dc dc42   end,  cpu clock=  1.91E+01 peak memory=       173 mb
 sweep: dc dc43   begin, #sweeps= 111 cpu clock=  1.91E+01
 sweep: dc dc43   end,  cpu clock=  1.91E+01 peak memory=       173 mb
 sweep: dc dc44   begin, #sweeps= 111 cpu clock=  1.91E+01
 sweep: dc dc44   end,  cpu clock=  1.92E+01 peak memory=       173 mb
 sweep: dc dc45   begin, #sweeps= 111 cpu clock=  1.92E+01
 sweep: dc dc45   end,  cpu clock=  1.92E+01 peak memory=       173 mb
 sweep: dc dc46   begin, #sweeps= 111 cpu clock=  1.92E+01
 sweep: dc dc46   end,  cpu clock=  1.92E+01 peak memory=       173 mb
 sweep: dc dc47   begin, #sweeps= 111 cpu clock=  1.92E+01
 sweep: dc dc47   end,  cpu clock=  1.92E+01 peak memory=       173 mb
 sweep: dc dc48   begin, #sweeps= 111 cpu clock=  1.92E+01
 sweep: dc dc48   end,  cpu clock=  1.92E+01 peak memory=       173 mb
 sweep: dc dc49   begin, #sweeps= 111 cpu clock=  1.92E+01
 sweep: dc dc49   end,  cpu clock=  1.92E+01 peak memory=       173 mb
 sweep: dc dc50   begin, #sweeps= 111 cpu clock=  1.92E+01
 sweep: dc dc50   end,  cpu clock=  1.92E+01 peak memory=       173 mb
 sweep: dc dc51   begin, #sweeps= 111 cpu clock=  1.92E+01
 sweep: dc dc51   end,  cpu clock=  1.92E+01 peak memory=       173 mb
 sweep: dc dc52   begin, #sweeps= 111 cpu clock=  1.92E+01
 sweep: dc dc52   end,  cpu clock=  1.92E+01 peak memory=       173 mb
 sweep: dc dc53   begin, #sweeps= 111 cpu clock=  1.92E+01
 sweep: dc dc53   end,  cpu clock=  1.92E+01 peak memory=       173 mb
 sweep: dc dc54   begin, #sweeps= 111 cpu clock=  1.92E+01
 sweep: dc dc54   end,  cpu clock=  1.92E+01 peak memory=       173 mb
 sweep: dc dc55   begin, #sweeps= 111 cpu clock=  1.92E+01
 sweep: dc dc55   end,  cpu clock=  1.92E+01 peak memory=       173 mb
 sweep: dc dc56   begin, #sweeps= 111 cpu clock=  1.92E+01
 sweep: dc dc56   end,  cpu clock=  1.92E+01 peak memory=       173 mb
 sweep: dc dc57   begin, #sweeps= 111 cpu clock=  1.92E+01
 sweep: dc dc57   end,  cpu clock=  1.92E+01 peak memory=       173 mb
 sweep: dc dc58   begin, #sweeps= 111 cpu clock=  1.92E+01
 sweep: dc dc58   end,  cpu clock=  1.92E+01 peak memory=       173 mb
 sweep: dc dc59   begin, #sweeps= 111 cpu clock=  1.92E+01
 sweep: dc dc59   end,  cpu clock=  1.92E+01 peak memory=       173 mb
 sweep: dc dc60   begin, #sweeps= 111 cpu clock=  1.92E+01
 sweep: dc dc60   end,  cpu clock=  1.92E+01 peak memory=       173 mb
 sweep: dc dc61   begin, #sweeps= 111 cpu clock=  1.92E+01
 sweep: dc dc61   end,  cpu clock=  1.92E+01 peak memory=       173 mb
 sweep: dc dc62   begin, #sweeps= 111 cpu clock=  1.92E+01
 sweep: dc dc62   end,  cpu clock=  1.92E+01 peak memory=       173 mb
 sweep: dc dc63   begin, #sweeps= 111 cpu clock=  1.92E+01
 sweep: dc dc63   end,  cpu clock=  1.92E+01 peak memory=       173 mb
 sweep: dc dc64   begin, #sweeps= 111 cpu clock=  1.92E+01
 sweep: dc dc64   end,  cpu clock=  1.92E+01 peak memory=       173 mb
 sweep: dc dc65   begin, #sweeps= 111 cpu clock=  1.92E+01
 sweep: dc dc65   end,  cpu clock=  1.92E+01 peak memory=       173 mb
 sweep: dc dc66   begin, #sweeps= 111 cpu clock=  1.92E+01
 sweep: dc dc66   end,  cpu clock=  1.92E+01 peak memory=       173 mb
 sweep: dc dc67   begin, #sweeps= 111 cpu clock=  1.92E+01
 sweep: dc dc67   end,  cpu clock=  1.92E+01 peak memory=       173 mb
 sweep: dc dc68   begin, #sweeps= 111 cpu clock=  1.92E+01
 sweep: dc dc68   end,  cpu clock=  1.92E+01 peak memory=       173 mb
 sweep: dc dc69   begin, #sweeps= 111 cpu clock=  1.92E+01
 sweep: dc dc69   end,  cpu clock=  1.93E+01 peak memory=       173 mb
 sweep: dc dc70   begin, #sweeps= 111 cpu clock=  1.93E+01
 sweep: dc dc70   end,  cpu clock=  1.93E+01 peak memory=       173 mb
 sweep: dc dc71   begin, #sweeps= 111 cpu clock=  1.93E+01
 sweep: dc dc71   end,  cpu clock=  1.93E+01 peak memory=       173 mb
 sweep: dc dc72   begin, #sweeps= 111 cpu clock=  1.93E+01
 sweep: dc dc72   end,  cpu clock=  1.93E+01 peak memory=       173 mb
 sweep: dc dc73   begin, #sweeps= 111 cpu clock=  1.93E+01
 sweep: dc dc73   end,  cpu clock=  1.93E+01 peak memory=       173 mb
 sweep: dc dc74   begin, #sweeps= 111 cpu clock=  1.93E+01
 sweep: dc dc74   end,  cpu clock=  1.93E+01 peak memory=       173 mb
 sweep: dc dc75   begin, #sweeps= 111 cpu clock=  1.93E+01
 sweep: dc dc75   end,  cpu clock=  1.93E+01 peak memory=       173 mb
 sweep: dc dc76   begin, #sweeps= 111 cpu clock=  1.93E+01
 sweep: dc dc76   end,  cpu clock=  1.93E+01 peak memory=       173 mb
 sweep: dc dc77   begin, #sweeps= 111 cpu clock=  1.93E+01
 sweep: dc dc77   end,  cpu clock=  1.93E+01 peak memory=       173 mb
 sweep: dc dc78   begin, #sweeps= 111 cpu clock=  1.93E+01
 sweep: dc dc78   end,  cpu clock=  1.93E+01 peak memory=       173 mb
 sweep: dc dc79   begin, #sweeps= 111 cpu clock=  1.93E+01
 sweep: dc dc79   end,  cpu clock=  1.93E+01 peak memory=       173 mb
 sweep: dc dc80   begin, #sweeps= 111 cpu clock=  1.93E+01
 sweep: dc dc80   end,  cpu clock=  1.93E+01 peak memory=       173 mb
 sweep: dc dc81   begin, #sweeps= 111 cpu clock=  1.93E+01
 sweep: dc dc81   end,  cpu clock=  1.93E+01 peak memory=       173 mb
 sweep: dc dc82   begin, #sweeps= 111 cpu clock=  1.93E+01
 sweep: dc dc82   end,  cpu clock=  1.93E+01 peak memory=       173 mb
 sweep: dc dc83   begin, #sweeps= 111 cpu clock=  1.93E+01
 sweep: dc dc83   end,  cpu clock=  1.93E+01 peak memory=       173 mb
 sweep: dc dc84   begin, #sweeps= 111 cpu clock=  1.93E+01
 sweep: dc dc84   end,  cpu clock=  1.93E+01 peak memory=       173 mb
 sweep: dc dc85   begin, #sweeps= 111 cpu clock=  1.93E+01
 sweep: dc dc85   end,  cpu clock=  1.93E+01 peak memory=       173 mb
 sweep: dc dc86   begin, #sweeps= 111 cpu clock=  1.93E+01
 sweep: dc dc86   end,  cpu clock=  1.93E+01 peak memory=       173 mb
 sweep: dc dc87   begin, #sweeps= 111 cpu clock=  1.93E+01
 sweep: dc dc87   end,  cpu clock=  1.93E+01 peak memory=       173 mb
 sweep: dc dc88   begin, #sweeps= 111 cpu clock=  1.93E+01
 sweep: dc dc88   end,  cpu clock=  1.93E+01 peak memory=       173 mb
 sweep: dc dc89   begin, #sweeps= 111 cpu clock=  1.93E+01
 sweep: dc dc89   end,  cpu clock=  1.93E+01 peak memory=       173 mb
 sweep: dc dc90   begin, #sweeps= 111 cpu clock=  1.93E+01
 sweep: dc dc90   end,  cpu clock=  1.93E+01 peak memory=       173 mb
 sweep: dc dc91   begin, #sweeps= 111 cpu clock=  1.93E+01
 sweep: dc dc91   end,  cpu clock=  1.93E+01 peak memory=       173 mb
 sweep: dc dc92   begin, #sweeps= 111 cpu clock=  1.93E+01
 sweep: dc dc92   end,  cpu clock=  1.93E+01 peak memory=       173 mb
 sweep: dc dc93   begin, #sweeps= 111 cpu clock=  1.93E+01
 sweep: dc dc93   end,  cpu clock=  1.93E+01 peak memory=       173 mb
 sweep: dc dc94   begin, #sweeps= 111 cpu clock=  1.93E+01
 sweep: dc dc94   end,  cpu clock=  1.93E+01 peak memory=       173 mb
 sweep: dc dc95   begin, #sweeps= 111 cpu clock=  1.93E+01
 sweep: dc dc95   end,  cpu clock=  1.94E+01 peak memory=       173 mb
 sweep: dc dc96   begin, #sweeps= 111 cpu clock=  1.94E+01
 sweep: dc dc96   end,  cpu clock=  1.94E+01 peak memory=       173 mb
 sweep: dc dc97   begin, #sweeps= 111 cpu clock=  1.94E+01
 sweep: dc dc97   end,  cpu clock=  1.94E+01 peak memory=       173 mb
 sweep: dc dc98   begin, #sweeps= 111 cpu clock=  1.94E+01
 sweep: dc dc98   end,  cpu clock=  1.94E+01 peak memory=       173 mb
 sweep: dc dc99   begin, #sweeps= 111 cpu clock=  1.94E+01
 sweep: dc dc99   end,  cpu clock=  1.94E+01 peak memory=       173 mb
 sweep: dc dc100  begin, #sweeps= 111 cpu clock=  1.94E+01
 sweep: dc dc100  end,  cpu clock=  1.94E+01 peak memory=       173 mb
 sweep: dc dc101  begin, #sweeps= 111 cpu clock=  1.94E+01
 sweep: dc dc101  end,  cpu clock=  1.94E+01 peak memory=       173 mb
 sweep: dc dc102  begin, #sweeps= 111 cpu clock=  1.94E+01
 sweep: dc dc102  end,  cpu clock=  1.94E+01 peak memory=       173 mb
 sweep: dc dc103  begin, #sweeps= 111 cpu clock=  1.94E+01
 sweep: dc dc103  end,  cpu clock=  1.94E+01 peak memory=       173 mb
 sweep: dc dc104  begin, #sweeps= 111 cpu clock=  1.94E+01
 sweep: dc dc104  end,  cpu clock=  1.94E+01 peak memory=       173 mb
 sweep: dc dc105  begin, #sweeps= 111 cpu clock=  1.94E+01
 sweep: dc dc105  end,  cpu clock=  1.94E+01 peak memory=       173 mb
 sweep: dc dc106  begin, #sweeps= 111 cpu clock=  1.94E+01
 sweep: dc dc106  end,  cpu clock=  1.94E+01 peak memory=       173 mb
 sweep: dc dc107  begin, #sweeps= 111 cpu clock=  1.94E+01
 sweep: dc dc107  end,  cpu clock=  1.94E+01 peak memory=       173 mb
 sweep: dc dc108  begin, #sweeps= 111 cpu clock=  1.94E+01
 sweep: dc dc108  end,  cpu clock=  1.94E+01 peak memory=       173 mb
 sweep: dc dc109  begin, #sweeps= 111 cpu clock=  1.94E+01
 sweep: dc dc109  end,  cpu clock=  1.94E+01 peak memory=       173 mb
 sweep: dc dc110  begin, #sweeps= 111 cpu clock=  1.94E+01
 sweep: dc dc110  end,  cpu clock=  1.94E+01 peak memory=       173 mb
 sweep: dc dc111  begin, #sweeps= 111 cpu clock=  1.94E+01
 sweep: dc dc111  end,  cpu clock=  1.94E+01 peak memory=       173 mb
 sweep: dc dc112  begin, #sweeps= 111 cpu clock=  1.94E+01
 sweep: dc dc112  end,  cpu clock=  1.94E+01 peak memory=       173 mb
 sweep: dc dc113  begin, #sweeps= 111 cpu clock=  1.94E+01
 sweep: dc dc113  end,  cpu clock=  1.94E+01 peak memory=       173 mb
 sweep: dc dc114  begin, #sweeps= 111 cpu clock=  1.94E+01
 sweep: dc dc114  end,  cpu clock=  1.94E+01 peak memory=       173 mb
 sweep: dc dc115  begin, #sweeps= 111 cpu clock=  1.94E+01
 sweep: dc dc115  end,  cpu clock=  1.94E+01 peak memory=       173 mb
 sweep: dc dc116  begin, #sweeps= 111 cpu clock=  1.94E+01
 sweep: dc dc116  end,  cpu clock=  1.94E+01 peak memory=       173 mb
 sweep: dc dc117  begin, #sweeps= 111 cpu clock=  1.94E+01
 sweep: dc dc117  end,  cpu clock=  1.94E+01 peak memory=       173 mb
 sweep: dc dc118  begin, #sweeps= 111 cpu clock=  1.94E+01
 sweep: dc dc118  end,  cpu clock=  1.94E+01 peak memory=       173 mb
 sweep: dc dc119  begin, #sweeps= 111 cpu clock=  1.94E+01
 sweep: dc dc119  end,  cpu clock=  1.94E+01 peak memory=       173 mb
 sweep: dc dc120  begin, #sweeps= 111 cpu clock=  1.94E+01
 sweep: dc dc120  end,  cpu clock=  1.95E+01 peak memory=       173 mb
 sweep: dc dc121  begin, #sweeps= 111 cpu clock=  1.95E+01
 sweep: dc dc121  end,  cpu clock=  1.95E+01 peak memory=       173 mb
 sweep: dc dc122  begin, #sweeps= 111 cpu clock=  1.95E+01
 sweep: dc dc122  end,  cpu clock=  1.95E+01 peak memory=       173 mb
 sweep: dc dc123  begin, #sweeps= 111 cpu clock=  1.95E+01
 sweep: dc dc123  end,  cpu clock=  1.95E+01 peak memory=       173 mb
 sweep: dc dc124  begin, #sweeps= 111 cpu clock=  1.95E+01
 sweep: dc dc124  end,  cpu clock=  1.95E+01 peak memory=       173 mb
 sweep: dc dc125  begin, #sweeps= 111 cpu clock=  1.95E+01
 sweep: dc dc125  end,  cpu clock=  1.95E+01 peak memory=       173 mb
 sweep: dc dc126  begin, #sweeps= 111 cpu clock=  1.95E+01
 sweep: dc dc126  end,  cpu clock=  1.95E+01 peak memory=       173 mb
 sweep: dc dc127  begin, #sweeps= 111 cpu clock=  1.95E+01
 sweep: dc dc127  end,  cpu clock=  1.95E+01 peak memory=       173 mb
 sweep: dc dc128  begin, #sweeps= 111 cpu clock=  1.95E+01
 sweep: dc dc128  end,  cpu clock=  1.95E+01 peak memory=       173 mb
 sweep: dc dc129  begin, #sweeps= 111 cpu clock=  1.95E+01
 sweep: dc dc129  end,  cpu clock=  1.95E+01 peak memory=       173 mb
 sweep: dc dc130  begin, #sweeps= 111 cpu clock=  1.95E+01
 sweep: dc dc130  end,  cpu clock=  1.95E+01 peak memory=       173 mb
 sweep: dc dc131  begin, #sweeps= 111 cpu clock=  1.95E+01
 sweep: dc dc131  end,  cpu clock=  1.95E+01 peak memory=       173 mb
 sweep: dc dc132  begin, #sweeps= 111 cpu clock=  1.95E+01
 sweep: dc dc132  end,  cpu clock=  1.95E+01 peak memory=       173 mb
 sweep: dc dc133  begin, #sweeps= 111 cpu clock=  1.95E+01
 sweep: dc dc133  end,  cpu clock=  1.95E+01 peak memory=       173 mb
 sweep: dc dc134  begin, #sweeps= 111 cpu clock=  1.95E+01
 sweep: dc dc134  end,  cpu clock=  1.95E+01 peak memory=       173 mb
 sweep: dc dc135  begin, #sweeps= 111 cpu clock=  1.95E+01
 sweep: dc dc135  end,  cpu clock=  1.95E+01 peak memory=       173 mb
 sweep: dc dc136  begin, #sweeps= 111 cpu clock=  1.95E+01
 sweep: dc dc136  end,  cpu clock=  1.95E+01 peak memory=       173 mb
 sweep: dc dc137  begin, #sweeps= 111 cpu clock=  1.95E+01
 sweep: dc dc137  end,  cpu clock=  1.95E+01 peak memory=       173 mb
 sweep: dc dc138  begin, #sweeps= 111 cpu clock=  1.95E+01
 sweep: dc dc138  end,  cpu clock=  1.95E+01 peak memory=       173 mb
 sweep: dc dc139  begin, #sweeps= 111 cpu clock=  1.95E+01
 sweep: dc dc139  end,  cpu clock=  1.95E+01 peak memory=       173 mb
 sweep: dc dc140  begin, #sweeps= 111 cpu clock=  1.95E+01
 sweep: dc dc140  end,  cpu clock=  1.95E+01 peak memory=       173 mb
 sweep: dc dc141  begin, #sweeps= 111 cpu clock=  1.95E+01
 sweep: dc dc141  end,  cpu clock=  1.95E+01 peak memory=       173 mb
 sweep: dc dc142  begin, #sweeps= 111 cpu clock=  1.95E+01
 sweep: dc dc142  end,  cpu clock=  1.95E+01 peak memory=       173 mb
 sweep: dc dc143  begin, #sweeps= 111 cpu clock=  1.95E+01
 sweep: dc dc143  end,  cpu clock=  1.95E+01 peak memory=       173 mb
 sweep: dc dc144  begin, #sweeps= 111 cpu clock=  1.95E+01
 sweep: dc dc144  end,  cpu clock=  1.95E+01 peak memory=       173 mb
 sweep: dc dc145  begin, #sweeps= 111 cpu clock=  1.95E+01
 sweep: dc dc145  end,  cpu clock=  1.95E+01 peak memory=       173 mb
 sweep: dc dc146  begin, #sweeps= 111 cpu clock=  1.96E+01
 sweep: dc dc146  end,  cpu clock=  1.96E+01 peak memory=       173 mb
 sweep: dc dc147  begin, #sweeps= 111 cpu clock=  1.96E+01
 sweep: dc dc147  end,  cpu clock=  1.96E+01 peak memory=       173 mb
 sweep: dc dc148  begin, #sweeps= 111 cpu clock=  1.96E+01
 sweep: dc dc148  end,  cpu clock=  1.96E+01 peak memory=       173 mb
 sweep: dc dc149  begin, #sweeps= 111 cpu clock=  1.96E+01
 sweep: dc dc149  end,  cpu clock=  1.96E+01 peak memory=       173 mb
 sweep: dc dc150  begin, #sweeps= 111 cpu clock=  1.96E+01
 sweep: dc dc150  end,  cpu clock=  1.96E+01 peak memory=       173 mb
 sweep: dc dc151  begin, #sweeps= 111 cpu clock=  1.96E+01
 sweep: dc dc151  end,  cpu clock=  1.96E+01 peak memory=       173 mb
 sweep: dc dc152  begin, #sweeps= 111 cpu clock=  1.96E+01
 sweep: dc dc152  end,  cpu clock=  1.96E+01 peak memory=       173 mb
 sweep: dc dc153  begin, #sweeps= 111 cpu clock=  1.96E+01
 sweep: dc dc153  end,  cpu clock=  1.96E+01 peak memory=       173 mb
 sweep: dc dc154  begin, #sweeps= 111 cpu clock=  1.96E+01
 sweep: dc dc154  end,  cpu clock=  1.96E+01 peak memory=       173 mb
 sweep: dc dc155  begin, #sweeps= 111 cpu clock=  1.96E+01
 sweep: dc dc155  end,  cpu clock=  1.96E+01 peak memory=       173 mb
 sweep: dc dc156  begin, #sweeps= 111 cpu clock=  1.96E+01
 sweep: dc dc156  end,  cpu clock=  1.96E+01 peak memory=       173 mb
 sweep: dc dc157  begin, #sweeps= 111 cpu clock=  1.96E+01
 sweep: dc dc157  end,  cpu clock=  1.96E+01 peak memory=       173 mb
 sweep: dc dc158  begin, #sweeps= 111 cpu clock=  1.96E+01
 sweep: dc dc158  end,  cpu clock=  1.96E+01 peak memory=       173 mb
 sweep: dc dc159  begin, #sweeps= 111 cpu clock=  1.96E+01
 sweep: dc dc159  end,  cpu clock=  1.96E+01 peak memory=       173 mb
 sweep: dc dc160  begin, #sweeps= 111 cpu clock=  1.96E+01
 sweep: dc dc160  end,  cpu clock=  1.96E+01 peak memory=       173 mb
 sweep: dc dc161  begin, #sweeps= 111 cpu clock=  1.96E+01
 sweep: dc dc161  end,  cpu clock=  1.96E+01 peak memory=       173 mb
 sweep: dc dc162  begin, #sweeps= 111 cpu clock=  1.96E+01
 sweep: dc dc162  end,  cpu clock=  1.96E+01 peak memory=       173 mb
 sweep: dc dc163  begin, #sweeps= 111 cpu clock=  1.96E+01
 sweep: dc dc163  end,  cpu clock=  1.96E+01 peak memory=       173 mb
 sweep: dc dc164  begin, #sweeps= 111 cpu clock=  1.96E+01
 sweep: dc dc164  end,  cpu clock=  1.96E+01 peak memory=       173 mb
 sweep: dc dc165  begin, #sweeps= 111 cpu clock=  1.96E+01
 sweep: dc dc165  end,  cpu clock=  1.96E+01 peak memory=       173 mb
 sweep: dc dc166  begin, #sweeps= 111 cpu clock=  1.96E+01
 sweep: dc dc166  end,  cpu clock=  1.96E+01 peak memory=       173 mb
 sweep: dc dc167  begin, #sweeps= 111 cpu clock=  1.96E+01
 sweep: dc dc167  end,  cpu clock=  1.96E+01 peak memory=       173 mb
 sweep: dc dc168  begin, #sweeps= 111 cpu clock=  1.96E+01
 sweep: dc dc168  end,  cpu clock=  1.96E+01 peak memory=       173 mb
 sweep: dc dc169  begin, #sweeps= 111 cpu clock=  1.96E+01
 sweep: dc dc169  end,  cpu clock=  1.96E+01 peak memory=       173 mb
 sweep: dc dc170  begin, #sweeps= 111 cpu clock=  1.96E+01
 sweep: dc dc170  end,  cpu clock=  1.96E+01 peak memory=       173 mb
 sweep: dc dc171  begin, #sweeps= 111 cpu clock=  1.96E+01
 sweep: dc dc171  end,  cpu clock=  1.97E+01 peak memory=       173 mb
 sweep: dc dc172  begin, #sweeps= 111 cpu clock=  1.97E+01
 sweep: dc dc172  end,  cpu clock=  1.97E+01 peak memory=       173 mb
 sweep: dc dc173  begin, #sweeps= 111 cpu clock=  1.97E+01
 sweep: dc dc173  end,  cpu clock=  1.97E+01 peak memory=       173 mb
 sweep: dc dc174  begin, #sweeps= 111 cpu clock=  1.97E+01
 sweep: dc dc174  end,  cpu clock=  1.97E+01 peak memory=       173 mb
 sweep: dc dc175  begin, #sweeps= 111 cpu clock=  1.97E+01
 sweep: dc dc175  end,  cpu clock=  1.97E+01 peak memory=       173 mb
 sweep: dc dc176  begin, #sweeps= 111 cpu clock=  1.97E+01
 sweep: dc dc176  end,  cpu clock=  1.97E+01 peak memory=       173 mb
 sweep: dc dc177  begin, #sweeps= 111 cpu clock=  1.97E+01
 sweep: dc dc177  end,  cpu clock=  1.97E+01 peak memory=       173 mb
 sweep: dc dc178  begin, #sweeps= 111 cpu clock=  1.97E+01
 sweep: dc dc178  end,  cpu clock=  1.97E+01 peak memory=       173 mb
 sweep: dc dc179  begin, #sweeps= 111 cpu clock=  1.97E+01
 sweep: dc dc179  end,  cpu clock=  1.97E+01 peak memory=       173 mb
 sweep: dc dc180  begin, #sweeps= 111 cpu clock=  1.97E+01
 sweep: dc dc180  end,  cpu clock=  1.97E+01 peak memory=       173 mb
 sweep: dc dc181  begin, #sweeps= 111 cpu clock=  1.97E+01
 sweep: dc dc181  end,  cpu clock=  1.97E+01 peak memory=       173 mb
 sweep: dc dc182  begin, #sweeps= 111 cpu clock=  1.97E+01
 sweep: dc dc182  end,  cpu clock=  1.97E+01 peak memory=       173 mb
 sweep: dc dc183  begin, #sweeps= 111 cpu clock=  1.97E+01
 sweep: dc dc183  end,  cpu clock=  1.97E+01 peak memory=       173 mb
 sweep: dc dc184  begin, #sweeps= 111 cpu clock=  1.97E+01
 sweep: dc dc184  end,  cpu clock=  1.97E+01 peak memory=       173 mb
 sweep: dc dc185  begin, #sweeps= 111 cpu clock=  1.97E+01
 sweep: dc dc185  end,  cpu clock=  1.97E+01 peak memory=       173 mb
 sweep: dc dc186  begin, #sweeps= 111 cpu clock=  1.97E+01
 sweep: dc dc186  end,  cpu clock=  1.97E+01 peak memory=       173 mb
 sweep: dc dc187  begin, #sweeps= 111 cpu clock=  1.97E+01
 sweep: dc dc187  end,  cpu clock=  1.97E+01 peak memory=       173 mb
 sweep: dc dc188  begin, #sweeps= 111 cpu clock=  1.97E+01
 sweep: dc dc188  end,  cpu clock=  1.97E+01 peak memory=       173 mb
 sweep: dc dc189  begin, #sweeps= 111 cpu clock=  1.97E+01
 sweep: dc dc189  end,  cpu clock=  1.97E+01 peak memory=       173 mb
 sweep: dc dc190  begin, #sweeps= 111 cpu clock=  1.97E+01
 sweep: dc dc190  end,  cpu clock=  1.97E+01 peak memory=       173 mb
 sweep: dc dc191  begin, #sweeps= 111 cpu clock=  1.97E+01
 sweep: dc dc191  end,  cpu clock=  1.97E+01 peak memory=       173 mb
 sweep: dc dc192  begin, #sweeps= 111 cpu clock=  1.97E+01
 sweep: dc dc192  end,  cpu clock=  1.97E+01 peak memory=       173 mb
 sweep: dc dc193  begin, #sweeps= 111 cpu clock=  1.97E+01
 sweep: dc dc193  end,  cpu clock=  1.97E+01 peak memory=       173 mb
 sweep: dc dc194  begin, #sweeps= 111 cpu clock=  1.97E+01
 sweep: dc dc194  end,  cpu clock=  1.97E+01 peak memory=       173 mb
 sweep: dc dc195  begin, #sweeps= 111 cpu clock=  1.97E+01
 sweep: dc dc195  end,  cpu clock=  1.97E+01 peak memory=       173 mb
 sweep: dc dc196  begin, #sweeps= 111 cpu clock=  1.97E+01
 sweep: dc dc196  end,  cpu clock=  1.98E+01 peak memory=       173 mb
 sweep: dc dc197  begin, #sweeps= 111 cpu clock=  1.98E+01
 sweep: dc dc197  end,  cpu clock=  1.98E+01 peak memory=       173 mb
 sweep: dc dc198  begin, #sweeps= 111 cpu clock=  1.98E+01
 sweep: dc dc198  end,  cpu clock=  1.98E+01 peak memory=       173 mb
 sweep: dc dc199  begin, #sweeps= 111 cpu clock=  1.98E+01
 sweep: dc dc199  end,  cpu clock=  1.98E+01 peak memory=       173 mb
 sweep: dc dc200  begin, #sweeps= 111 cpu clock=  1.98E+01
 sweep: dc dc200  end,  cpu clock=  1.98E+01 peak memory=       173 mb
 sweep: dc dc201  begin, #sweeps= 111 cpu clock=  1.98E+01
 sweep: dc dc201  end,  cpu clock=  1.98E+01 peak memory=       173 mb
 sweep: dc dc202  begin, #sweeps= 111 cpu clock=  1.98E+01
 sweep: dc dc202  end,  cpu clock=  1.98E+01 peak memory=       173 mb
 sweep: dc dc203  begin, #sweeps= 111 cpu clock=  1.98E+01
 sweep: dc dc203  end,  cpu clock=  1.98E+01 peak memory=       173 mb
 sweep: dc dc204  begin, #sweeps= 111 cpu clock=  1.98E+01
 sweep: dc dc204  end,  cpu clock=  1.98E+01 peak memory=       173 mb
 sweep: dc dc205  begin, #sweeps= 111 cpu clock=  1.98E+01
 sweep: dc dc205  end,  cpu clock=  1.98E+01 peak memory=       173 mb
 sweep: dc dc206  begin, #sweeps= 111 cpu clock=  1.98E+01
 sweep: dc dc206  end,  cpu clock=  1.98E+01 peak memory=       173 mb
 sweep: dc dc207  begin, #sweeps= 111 cpu clock=  1.98E+01
 sweep: dc dc207  end,  cpu clock=  1.98E+01 peak memory=       173 mb
 sweep: dc dc208  begin, #sweeps= 111 cpu clock=  1.98E+01
 sweep: dc dc208  end,  cpu clock=  1.98E+01 peak memory=       173 mb
 sweep: dc dc209  begin, #sweeps= 111 cpu clock=  1.98E+01
 sweep: dc dc209  end,  cpu clock=  1.98E+01 peak memory=       173 mb
 sweep: dc dc210  begin, #sweeps= 111 cpu clock=  1.98E+01
 sweep: dc dc210  end,  cpu clock=  1.98E+01 peak memory=       173 mb
 sweep: dc dc211  begin, #sweeps= 111 cpu clock=  1.98E+01
 sweep: dc dc211  end,  cpu clock=  1.98E+01 peak memory=       173 mb
 sweep: dc dc212  begin, #sweeps= 111 cpu clock=  1.98E+01
 sweep: dc dc212  end,  cpu clock=  1.98E+01 peak memory=       173 mb
 sweep: dc dc213  begin, #sweeps= 111 cpu clock=  1.98E+01
 sweep: dc dc213  end,  cpu clock=  1.98E+01 peak memory=       173 mb
 sweep: dc dc214  begin, #sweeps= 111 cpu clock=  1.98E+01
 sweep: dc dc214  end,  cpu clock=  1.98E+01 peak memory=       173 mb
 sweep: dc dc215  begin, #sweeps= 111 cpu clock=  1.98E+01
 sweep: dc dc215  end,  cpu clock=  1.98E+01 peak memory=       173 mb
 sweep: dc dc216  begin, #sweeps= 111 cpu clock=  1.98E+01
 sweep: dc dc216  end,  cpu clock=  1.98E+01 peak memory=       173 mb
 sweep: dc dc217  begin, #sweeps= 111 cpu clock=  1.98E+01
 sweep: dc dc217  end,  cpu clock=  1.98E+01 peak memory=       173 mb
 sweep: dc dc218  begin, #sweeps= 111 cpu clock=  1.98E+01
 sweep: dc dc218  end,  cpu clock=  1.98E+01 peak memory=       173 mb
 sweep: dc dc219  begin, #sweeps= 111 cpu clock=  1.98E+01
 sweep: dc dc219  end,  cpu clock=  1.98E+01 peak memory=       173 mb
 sweep: dc dc220  begin, #sweeps= 111 cpu clock=  1.98E+01
 sweep: dc dc220  end,  cpu clock=  1.98E+01 peak memory=       173 mb
 sweep: dc dc221  begin, #sweeps= 111 cpu clock=  1.98E+01
 sweep: dc dc221  end,  cpu clock=  1.98E+01 peak memory=       173 mb
 sweep: dc dc222  begin, #sweeps= 111 cpu clock=  1.99E+01
 sweep: dc dc222  end,  cpu clock=  1.99E+01 peak memory=       173 mb
 sweep: dc dc223  begin, #sweeps= 111 cpu clock=  1.99E+01
 sweep: dc dc223  end,  cpu clock=  1.99E+01 peak memory=       173 mb
 sweep: dc dc224  begin, #sweeps= 111 cpu clock=  1.99E+01
 sweep: dc dc224  end,  cpu clock=  1.99E+01 peak memory=       173 mb
 sweep: dc dc225  begin, #sweeps= 111 cpu clock=  1.99E+01
 sweep: dc dc225  end,  cpu clock=  1.99E+01 peak memory=       173 mb
 sweep: dc dc226  begin, #sweeps= 111 cpu clock=  1.99E+01
 sweep: dc dc226  end,  cpu clock=  1.99E+01 peak memory=       173 mb
 sweep: dc dc227  begin, #sweeps= 111 cpu clock=  1.99E+01
 sweep: dc dc227  end,  cpu clock=  1.99E+01 peak memory=       173 mb
 sweep: dc dc228  begin, #sweeps= 111 cpu clock=  1.99E+01
 sweep: dc dc228  end,  cpu clock=  1.99E+01 peak memory=       173 mb
 sweep: dc dc229  begin, #sweeps= 111 cpu clock=  1.99E+01
 sweep: dc dc229  end,  cpu clock=  1.99E+01 peak memory=       173 mb
 sweep: dc dc230  begin, #sweeps= 111 cpu clock=  1.99E+01
 sweep: dc dc230  end,  cpu clock=  1.99E+01 peak memory=       173 mb
 sweep: dc dc231  begin, #sweeps= 111 cpu clock=  1.99E+01
 sweep: dc dc231  end,  cpu clock=  1.99E+01 peak memory=       173 mb
 sweep: dc dc232  begin, #sweeps= 111 cpu clock=  1.99E+01
 sweep: dc dc232  end,  cpu clock=  1.99E+01 peak memory=       173 mb
 sweep: dc dc233  begin, #sweeps= 111 cpu clock=  1.99E+01
 sweep: dc dc233  end,  cpu clock=  1.99E+01 peak memory=       173 mb
 sweep: dc dc234  begin, #sweeps= 111 cpu clock=  1.99E+01
 sweep: dc dc234  end,  cpu clock=  1.99E+01 peak memory=       173 mb
 sweep: dc dc235  begin, #sweeps= 111 cpu clock=  1.99E+01
 sweep: dc dc235  end,  cpu clock=  1.99E+01 peak memory=       173 mb
 sweep: dc dc236  begin, #sweeps= 111 cpu clock=  1.99E+01
 sweep: dc dc236  end,  cpu clock=  1.99E+01 peak memory=       173 mb
 sweep: dc dc237  begin, #sweeps= 111 cpu clock=  1.99E+01
 sweep: dc dc237  end,  cpu clock=  1.99E+01 peak memory=       173 mb
 sweep: dc dc238  begin, #sweeps= 111 cpu clock=  1.99E+01
 sweep: dc dc238  end,  cpu clock=  1.99E+01 peak memory=       173 mb
 sweep: dc dc239  begin, #sweeps= 111 cpu clock=  1.99E+01
 sweep: dc dc239  end,  cpu clock=  1.99E+01 peak memory=       173 mb
 sweep: dc dc240  begin, #sweeps= 111 cpu clock=  1.99E+01
 sweep: dc dc240  end,  cpu clock=  1.99E+01 peak memory=       173 mb
 sweep: dc dc241  begin, #sweeps= 111 cpu clock=  1.99E+01
 sweep: dc dc241  end,  cpu clock=  1.99E+01 peak memory=       173 mb
 sweep: dc dc242  begin, #sweeps= 111 cpu clock=  1.99E+01
 sweep: dc dc242  end,  cpu clock=  1.99E+01 peak memory=       173 mb
 sweep: dc dc243  begin, #sweeps= 111 cpu clock=  1.99E+01
 sweep: dc dc243  end,  cpu clock=  1.99E+01 peak memory=       173 mb
 sweep: dc dc244  begin, #sweeps= 111 cpu clock=  1.99E+01
 sweep: dc dc244  end,  cpu clock=  1.99E+01 peak memory=       173 mb
 sweep: dc dc245  begin, #sweeps= 111 cpu clock=  1.99E+01
 sweep: dc dc245  end,  cpu clock=  1.99E+01 peak memory=       173 mb
 sweep: dc dc246  begin, #sweeps= 111 cpu clock=  1.99E+01
 sweep: dc dc246  end,  cpu clock=  1.99E+01 peak memory=       173 mb
 sweep: dc dc247  begin, #sweeps= 111 cpu clock=  1.99E+01
 sweep: dc dc247  end,  cpu clock=  2.00E+01 peak memory=       173 mb
 sweep: dc dc248  begin, #sweeps= 111 cpu clock=  2.00E+01
 sweep: dc dc248  end,  cpu clock=  2.00E+01 peak memory=       173 mb
 sweep: dc dc249  begin, #sweeps= 111 cpu clock=  2.00E+01
 sweep: dc dc249  end,  cpu clock=  2.00E+01 peak memory=       173 mb
 sweep: dc dc250  begin, #sweeps= 111 cpu clock=  2.00E+01
 sweep: dc dc250  end,  cpu clock=  2.00E+01 peak memory=       173 mb
 sweep: dc dc251  begin, #sweeps= 111 cpu clock=  2.00E+01
 sweep: dc dc251  end,  cpu clock=  2.00E+01 peak memory=       173 mb
 sweep: dc dc252  begin, #sweeps= 111 cpu clock=  2.00E+01
 sweep: dc dc252  end,  cpu clock=  2.00E+01 peak memory=       173 mb
 sweep: dc dc253  begin, #sweeps= 111 cpu clock=  2.00E+01
 sweep: dc dc253  end,  cpu clock=  2.00E+01 peak memory=       173 mb
 sweep: dc dc254  begin, #sweeps= 111 cpu clock=  2.00E+01
 sweep: dc dc254  end,  cpu clock=  2.00E+01 peak memory=       173 mb
 sweep: dc dc255  begin, #sweeps= 111 cpu clock=  2.00E+01
 sweep: dc dc255  end,  cpu clock=  2.00E+01 peak memory=       173 mb
 sweep: dc dc256  begin, #sweeps= 111 cpu clock=  2.00E+01
 sweep: dc dc256  end,  cpu clock=  2.00E+01 peak memory=       173 mb
 sweep: dc dc257  begin, #sweeps= 111 cpu clock=  2.00E+01
 sweep: dc dc257  end,  cpu clock=  2.00E+01 peak memory=       173 mb
 sweep: dc dc258  begin, #sweeps= 111 cpu clock=  2.00E+01
 sweep: dc dc258  end,  cpu clock=  2.00E+01 peak memory=       173 mb
 sweep: dc dc259  begin, #sweeps= 111 cpu clock=  2.00E+01
 sweep: dc dc259  end,  cpu clock=  2.00E+01 peak memory=       173 mb
 sweep: dc dc260  begin, #sweeps= 111 cpu clock=  2.00E+01
 sweep: dc dc260  end,  cpu clock=  2.00E+01 peak memory=       173 mb
 sweep: dc dc261  begin, #sweeps= 111 cpu clock=  2.00E+01
 sweep: dc dc261  end,  cpu clock=  2.00E+01 peak memory=       173 mb
 sweep: dc dc262  begin, #sweeps= 111 cpu clock=  2.00E+01
 sweep: dc dc262  end,  cpu clock=  2.00E+01 peak memory=       173 mb
 sweep: dc dc263  begin, #sweeps= 111 cpu clock=  2.00E+01
 sweep: dc dc263  end,  cpu clock=  2.00E+01 peak memory=       173 mb
 sweep: dc dc264  begin, #sweeps= 111 cpu clock=  2.00E+01
 sweep: dc dc264  end,  cpu clock=  2.00E+01 peak memory=       173 mb
 sweep: dc dc265  begin, #sweeps= 111 cpu clock=  2.00E+01
 sweep: dc dc265  end,  cpu clock=  2.00E+01 peak memory=       173 mb
 sweep: dc dc266  begin, #sweeps= 111 cpu clock=  2.00E+01
 sweep: dc dc266  end,  cpu clock=  2.00E+01 peak memory=       173 mb
 sweep: dc dc267  begin, #sweeps= 111 cpu clock=  2.00E+01
 sweep: dc dc267  end,  cpu clock=  2.00E+01 peak memory=       173 mb
 sweep: dc dc268  begin, #sweeps= 111 cpu clock=  2.00E+01
 sweep: dc dc268  end,  cpu clock=  2.00E+01 peak memory=       173 mb
 sweep: dc dc269  begin, #sweeps= 111 cpu clock=  2.00E+01
 sweep: dc dc269  end,  cpu clock=  2.00E+01 peak memory=       173 mb
 sweep: dc dc270  begin, #sweeps= 111 cpu clock=  2.00E+01
 sweep: dc dc270  end,  cpu clock=  2.00E+01 peak memory=       173 mb
 sweep: dc dc271  begin, #sweeps= 111 cpu clock=  2.00E+01
 sweep: dc dc271  end,  cpu clock=  2.00E+01 peak memory=       173 mb
 sweep: dc dc272  begin, #sweeps= 111 cpu clock=  2.00E+01
 sweep: dc dc272  end,  cpu clock=  2.01E+01 peak memory=       173 mb
 sweep: dc dc273  begin, #sweeps= 111 cpu clock=  2.01E+01
 sweep: dc dc273  end,  cpu clock=  2.01E+01 peak memory=       173 mb
 sweep: dc dc274  begin, #sweeps= 111 cpu clock=  2.01E+01
 sweep: dc dc274  end,  cpu clock=  2.01E+01 peak memory=       173 mb
 sweep: dc dc275  begin, #sweeps= 111 cpu clock=  2.01E+01
 sweep: dc dc275  end,  cpu clock=  2.01E+01 peak memory=       173 mb
 sweep: dc dc276  begin, #sweeps= 111 cpu clock=  2.01E+01
 sweep: dc dc276  end,  cpu clock=  2.01E+01 peak memory=       173 mb
 sweep: dc dc277  begin, #sweeps= 111 cpu clock=  2.01E+01
 sweep: dc dc277  end,  cpu clock=  2.01E+01 peak memory=       173 mb
 sweep: dc dc278  begin, #sweeps= 111 cpu clock=  2.01E+01
 sweep: dc dc278  end,  cpu clock=  2.01E+01 peak memory=       173 mb
 sweep: dc dc279  begin, #sweeps= 111 cpu clock=  2.01E+01
 sweep: dc dc279  end,  cpu clock=  2.01E+01 peak memory=       173 mb
 sweep: dc dc280  begin, #sweeps= 111 cpu clock=  2.01E+01
 sweep: dc dc280  end,  cpu clock=  2.01E+01 peak memory=       173 mb
 sweep: dc dc281  begin, #sweeps= 111 cpu clock=  2.01E+01
 sweep: dc dc281  end,  cpu clock=  2.01E+01 peak memory=       173 mb
 sweep: dc dc282  begin, #sweeps= 111 cpu clock=  2.01E+01
 sweep: dc dc282  end,  cpu clock=  2.01E+01 peak memory=       173 mb
 sweep: dc dc283  begin, #sweeps= 111 cpu clock=  2.01E+01
 sweep: dc dc283  end,  cpu clock=  2.01E+01 peak memory=       173 mb
 sweep: dc dc284  begin, #sweeps= 111 cpu clock=  2.01E+01
 sweep: dc dc284  end,  cpu clock=  2.01E+01 peak memory=       173 mb
 sweep: dc dc285  begin, #sweeps= 111 cpu clock=  2.01E+01
 sweep: dc dc285  end,  cpu clock=  2.01E+01 peak memory=       173 mb
 sweep: dc dc286  begin, #sweeps= 111 cpu clock=  2.01E+01
 sweep: dc dc286  end,  cpu clock=  2.01E+01 peak memory=       173 mb
 sweep: dc dc287  begin, #sweeps= 111 cpu clock=  2.01E+01
 sweep: dc dc287  end,  cpu clock=  2.01E+01 peak memory=       173 mb
 sweep: dc dc288  begin, #sweeps= 111 cpu clock=  2.01E+01
 sweep: dc dc288  end,  cpu clock=  2.01E+01 peak memory=       173 mb
 sweep: dc dc289  begin, #sweeps= 111 cpu clock=  2.01E+01
 sweep: dc dc289  end,  cpu clock=  2.01E+01 peak memory=       173 mb
 sweep: dc dc290  begin, #sweeps= 111 cpu clock=  2.01E+01
 sweep: dc dc290  end,  cpu clock=  2.01E+01 peak memory=       173 mb
 sweep: dc dc291  begin, #sweeps= 111 cpu clock=  2.01E+01
 sweep: dc dc291  end,  cpu clock=  2.01E+01 peak memory=       173 mb
 sweep: dc dc292  begin, #sweeps= 111 cpu clock=  2.01E+01
 sweep: dc dc292  end,  cpu clock=  2.01E+01 peak memory=       173 mb
 sweep: dc dc293  begin, #sweeps= 111 cpu clock=  2.01E+01
 sweep: dc dc293  end,  cpu clock=  2.01E+01 peak memory=       173 mb
 sweep: dc dc294  begin, #sweeps= 111 cpu clock=  2.01E+01
 sweep: dc dc294  end,  cpu clock=  2.01E+01 peak memory=       173 mb
 sweep: dc dc295  begin, #sweeps= 111 cpu clock=  2.01E+01
 sweep: dc dc295  end,  cpu clock=  2.01E+01 peak memory=       173 mb
 sweep: dc dc296  begin, #sweeps= 111 cpu clock=  2.01E+01
 sweep: dc dc296  end,  cpu clock=  2.01E+01 peak memory=       173 mb
 sweep: dc dc297  begin, #sweeps= 111 cpu clock=  2.01E+01
 sweep: dc dc297  end,  cpu clock=  2.01E+01 peak memory=       173 mb
 sweep: dc dc298  begin, #sweeps= 111 cpu clock=  2.02E+01
 sweep: dc dc298  end,  cpu clock=  2.02E+01 peak memory=       173 mb
 sweep: dc dc299  begin, #sweeps= 111 cpu clock=  2.02E+01
 sweep: dc dc299  end,  cpu clock=  2.02E+01 peak memory=       173 mb
 sweep: dc dc300  begin, #sweeps= 111 cpu clock=  2.02E+01
 sweep: dc dc300  end,  cpu clock=  2.02E+01 peak memory=       173 mb
 sweep: dc dc301  begin, #sweeps= 111 cpu clock=  2.02E+01
 sweep: dc dc301  end,  cpu clock=  2.02E+01 peak memory=       173 mb
 sweep: dc dc302  begin, #sweeps= 111 cpu clock=  2.02E+01
 sweep: dc dc302  end,  cpu clock=  2.02E+01 peak memory=       173 mb
 sweep: dc dc303  begin, #sweeps= 111 cpu clock=  2.02E+01
 sweep: dc dc303  end,  cpu clock=  2.02E+01 peak memory=       173 mb
 sweep: dc dc304  begin, #sweeps= 111 cpu clock=  2.02E+01
 sweep: dc dc304  end,  cpu clock=  2.02E+01 peak memory=       173 mb
 sweep: dc dc305  begin, #sweeps= 111 cpu clock=  2.02E+01
 sweep: dc dc305  end,  cpu clock=  2.02E+01 peak memory=       173 mb
 sweep: dc dc306  begin, #sweeps= 111 cpu clock=  2.02E+01
 sweep: dc dc306  end,  cpu clock=  2.02E+01 peak memory=       173 mb
 sweep: dc dc307  begin, #sweeps= 111 cpu clock=  2.02E+01
 sweep: dc dc307  end,  cpu clock=  2.02E+01 peak memory=       173 mb
 sweep: dc dc308  begin, #sweeps= 111 cpu clock=  2.02E+01
 sweep: dc dc308  end,  cpu clock=  2.02E+01 peak memory=       173 mb
 sweep: dc dc309  begin, #sweeps= 111 cpu clock=  2.02E+01
 sweep: dc dc309  end,  cpu clock=  2.02E+01 peak memory=       173 mb
 sweep: dc dc310  begin, #sweeps= 111 cpu clock=  2.02E+01
 sweep: dc dc310  end,  cpu clock=  2.02E+01 peak memory=       173 mb
 sweep: dc dc311  begin, #sweeps= 111 cpu clock=  2.02E+01
 sweep: dc dc311  end,  cpu clock=  2.02E+01 peak memory=       173 mb
 sweep: dc dc312  begin, #sweeps= 111 cpu clock=  2.02E+01
 sweep: dc dc312  end,  cpu clock=  2.02E+01 peak memory=       173 mb
 sweep: dc dc313  begin, #sweeps= 111 cpu clock=  2.02E+01
 sweep: dc dc313  end,  cpu clock=  2.02E+01 peak memory=       173 mb
 sweep: dc dc314  begin, #sweeps= 111 cpu clock=  2.02E+01
 sweep: dc dc314  end,  cpu clock=  2.02E+01 peak memory=       173 mb
 sweep: dc dc315  begin, #sweeps= 111 cpu clock=  2.02E+01
 sweep: dc dc315  end,  cpu clock=  2.02E+01 peak memory=       173 mb
 sweep: dc dc316  begin, #sweeps= 111 cpu clock=  2.02E+01
 sweep: dc dc316  end,  cpu clock=  2.02E+01 peak memory=       173 mb
 sweep: dc dc317  begin, #sweeps= 111 cpu clock=  2.02E+01
 sweep: dc dc317  end,  cpu clock=  2.02E+01 peak memory=       173 mb
 sweep: dc dc318  begin, #sweeps= 111 cpu clock=  2.02E+01
 sweep: dc dc318  end,  cpu clock=  2.02E+01 peak memory=       173 mb
 sweep: dc dc319  begin, #sweeps= 111 cpu clock=  2.02E+01
 sweep: dc dc319  end,  cpu clock=  2.02E+01 peak memory=       173 mb
 sweep: dc dc320  begin, #sweeps= 111 cpu clock=  2.02E+01
 sweep: dc dc320  end,  cpu clock=  2.02E+01 peak memory=       173 mb
 sweep: dc dc321  begin, #sweeps= 111 cpu clock=  2.02E+01
 sweep: dc dc321  end,  cpu clock=  2.02E+01 peak memory=       173 mb
 sweep: dc dc322  begin, #sweeps= 111 cpu clock=  2.02E+01
 sweep: dc dc322  end,  cpu clock=  2.02E+01 peak memory=       173 mb
 sweep: dc dc323  begin, #sweeps= 111 cpu clock=  2.02E+01
 sweep: dc dc323  end,  cpu clock=  2.03E+01 peak memory=       173 mb
 sweep: dc dc324  begin, #sweeps= 111 cpu clock=  2.03E+01
 sweep: dc dc324  end,  cpu clock=  2.03E+01 peak memory=       173 mb
 sweep: dc dc325  begin, #sweeps= 111 cpu clock=  2.03E+01
 sweep: dc dc325  end,  cpu clock=  2.03E+01 peak memory=       173 mb
 sweep: dc dc326  begin, #sweeps= 111 cpu clock=  2.03E+01
 sweep: dc dc326  end,  cpu clock=  2.03E+01 peak memory=       173 mb
 sweep: dc dc327  begin, #sweeps= 111 cpu clock=  2.03E+01
 sweep: dc dc327  end,  cpu clock=  2.03E+01 peak memory=       173 mb
 sweep: dc dc328  begin, #sweeps= 111 cpu clock=  2.03E+01
 sweep: dc dc328  end,  cpu clock=  2.03E+01 peak memory=       173 mb
 sweep: dc dc329  begin, #sweeps= 111 cpu clock=  2.03E+01
 sweep: dc dc329  end,  cpu clock=  2.03E+01 peak memory=       173 mb
 sweep: dc dc330  begin, #sweeps= 111 cpu clock=  2.03E+01
 sweep: dc dc330  end,  cpu clock=  2.03E+01 peak memory=       173 mb
 sweep: dc dc331  begin, #sweeps= 111 cpu clock=  2.03E+01
 sweep: dc dc331  end,  cpu clock=  2.03E+01 peak memory=       173 mb
 sweep: dc dc332  begin, #sweeps= 111 cpu clock=  2.03E+01
 sweep: dc dc332  end,  cpu clock=  2.03E+01 peak memory=       173 mb
 sweep: dc dc333  begin, #sweeps= 111 cpu clock=  2.03E+01
 sweep: dc dc333  end,  cpu clock=  2.03E+01 peak memory=       173 mb
 sweep: dc dc334  begin, #sweeps= 111 cpu clock=  2.03E+01
 sweep: dc dc334  end,  cpu clock=  2.03E+01 peak memory=       173 mb
 sweep: dc dc335  begin, #sweeps= 111 cpu clock=  2.03E+01
 sweep: dc dc335  end,  cpu clock=  2.03E+01 peak memory=       173 mb
 sweep: dc dc336  begin, #sweeps= 111 cpu clock=  2.03E+01
 sweep: dc dc336  end,  cpu clock=  2.03E+01 peak memory=       173 mb
 sweep: dc dc337  begin, #sweeps= 111 cpu clock=  2.03E+01
 sweep: dc dc337  end,  cpu clock=  2.03E+01 peak memory=       173 mb
 sweep: dc dc338  begin, #sweeps= 111 cpu clock=  2.03E+01
 sweep: dc dc338  end,  cpu clock=  2.03E+01 peak memory=       173 mb
 sweep: dc dc339  begin, #sweeps= 111 cpu clock=  2.03E+01
 sweep: dc dc339  end,  cpu clock=  2.03E+01 peak memory=       173 mb
 sweep: dc dc340  begin, #sweeps= 111 cpu clock=  2.03E+01
 sweep: dc dc340  end,  cpu clock=  2.03E+01 peak memory=       173 mb
 sweep: dc dc341  begin, #sweeps= 111 cpu clock=  2.03E+01
 sweep: dc dc341  end,  cpu clock=  2.03E+01 peak memory=       173 mb
 sweep: dc dc342  begin, #sweeps= 111 cpu clock=  2.03E+01
 sweep: dc dc342  end,  cpu clock=  2.03E+01 peak memory=       173 mb
 sweep: dc dc343  begin, #sweeps= 111 cpu clock=  2.03E+01
 sweep: dc dc343  end,  cpu clock=  2.03E+01 peak memory=       173 mb
 sweep: dc dc344  begin, #sweeps= 111 cpu clock=  2.03E+01
 sweep: dc dc344  end,  cpu clock=  2.03E+01 peak memory=       173 mb
 sweep: dc dc345  begin, #sweeps= 111 cpu clock=  2.03E+01
 sweep: dc dc345  end,  cpu clock=  2.03E+01 peak memory=       173 mb
 sweep: dc dc346  begin, #sweeps= 111 cpu clock=  2.03E+01
 sweep: dc dc346  end,  cpu clock=  2.03E+01 peak memory=       173 mb
 sweep: dc dc347  begin, #sweeps= 111 cpu clock=  2.03E+01
 sweep: dc dc347  end,  cpu clock=  2.03E+01 peak memory=       173 mb
 sweep: dc dc348  begin, #sweeps= 111 cpu clock=  2.03E+01
 sweep: dc dc348  end,  cpu clock=  2.04E+01 peak memory=       173 mb
 sweep: dc dc349  begin, #sweeps= 111 cpu clock=  2.04E+01
 sweep: dc dc349  end,  cpu clock=  2.04E+01 peak memory=       173 mb
 sweep: dc dc350  begin, #sweeps= 111 cpu clock=  2.04E+01
 sweep: dc dc350  end,  cpu clock=  2.04E+01 peak memory=       173 mb
 sweep: dc dc351  begin, #sweeps= 111 cpu clock=  2.04E+01
 sweep: dc dc351  end,  cpu clock=  2.04E+01 peak memory=       173 mb
 sweep: dc dc352  begin, #sweeps= 111 cpu clock=  2.04E+01
 sweep: dc dc352  end,  cpu clock=  2.04E+01 peak memory=       173 mb
 sweep: dc dc353  begin, #sweeps= 111 cpu clock=  2.04E+01
 sweep: dc dc353  end,  cpu clock=  2.04E+01 peak memory=       173 mb
 sweep: dc dc354  begin, #sweeps= 111 cpu clock=  2.04E+01
 sweep: dc dc354  end,  cpu clock=  2.04E+01 peak memory=       173 mb
 sweep: dc dc355  begin, #sweeps= 111 cpu clock=  2.04E+01
 sweep: dc dc355  end,  cpu clock=  2.04E+01 peak memory=       173 mb
 sweep: dc dc356  begin, #sweeps= 111 cpu clock=  2.04E+01
 sweep: dc dc356  end,  cpu clock=  2.04E+01 peak memory=       173 mb
 sweep: dc dc357  begin, #sweeps= 111 cpu clock=  2.04E+01
 sweep: dc dc357  end,  cpu clock=  2.04E+01 peak memory=       173 mb
 sweep: dc dc358  begin, #sweeps= 111 cpu clock=  2.04E+01
 sweep: dc dc358  end,  cpu clock=  2.04E+01 peak memory=       173 mb
 sweep: dc dc359  begin, #sweeps= 111 cpu clock=  2.04E+01
 sweep: dc dc359  end,  cpu clock=  2.04E+01 peak memory=       173 mb
 sweep: dc dc360  begin, #sweeps= 111 cpu clock=  2.04E+01
 sweep: dc dc360  end,  cpu clock=  2.04E+01 peak memory=       173 mb
 sweep: dc dc361  begin, #sweeps= 111 cpu clock=  2.04E+01
 sweep: dc dc361  end,  cpu clock=  2.04E+01 peak memory=       173 mb
 sweep: dc dc362  begin, #sweeps= 111 cpu clock=  2.04E+01
 sweep: dc dc362  end,  cpu clock=  2.04E+01 peak memory=       173 mb
 sweep: dc dc363  begin, #sweeps= 111 cpu clock=  2.04E+01
 sweep: dc dc363  end,  cpu clock=  2.04E+01 peak memory=       173 mb
 sweep: dc dc364  begin, #sweeps= 111 cpu clock=  2.04E+01
 sweep: dc dc364  end,  cpu clock=  2.04E+01 peak memory=       173 mb
 sweep: dc dc365  begin, #sweeps= 111 cpu clock=  2.04E+01
 sweep: dc dc365  end,  cpu clock=  2.04E+01 peak memory=       173 mb
 sweep: dc dc366  begin, #sweeps= 111 cpu clock=  2.04E+01
 sweep: dc dc366  end,  cpu clock=  2.04E+01 peak memory=       173 mb
 sweep: dc dc367  begin, #sweeps= 111 cpu clock=  2.04E+01
 sweep: dc dc367  end,  cpu clock=  2.04E+01 peak memory=       173 mb
 sweep: dc dc368  begin, #sweeps= 111 cpu clock=  2.04E+01
 sweep: dc dc368  end,  cpu clock=  2.04E+01 peak memory=       173 mb
 sweep: dc dc369  begin, #sweeps= 111 cpu clock=  2.04E+01
 sweep: dc dc369  end,  cpu clock=  2.04E+01 peak memory=       173 mb
 sweep: dc dc370  begin, #sweeps= 111 cpu clock=  2.04E+01
 sweep: dc dc370  end,  cpu clock=  2.04E+01 peak memory=       173 mb
 sweep: dc dc371  begin, #sweeps= 111 cpu clock=  2.04E+01
 sweep: dc dc371  end,  cpu clock=  2.04E+01 peak memory=       173 mb
 sweep: dc dc372  begin, #sweeps= 111 cpu clock=  2.04E+01
 sweep: dc dc372  end,  cpu clock=  2.04E+01 peak memory=       173 mb
 sweep: dc dc373  begin, #sweeps= 111 cpu clock=  2.04E+01
 sweep: dc dc373  end,  cpu clock=  2.04E+01 peak memory=       173 mb
 sweep: dc dc374  begin, #sweeps= 111 cpu clock=  2.05E+01
 sweep: dc dc374  end,  cpu clock=  2.05E+01 peak memory=       173 mb
 sweep: dc dc375  begin, #sweeps= 111 cpu clock=  2.05E+01
 sweep: dc dc375  end,  cpu clock=  2.05E+01 peak memory=       173 mb
 sweep: dc dc376  begin, #sweeps= 111 cpu clock=  2.05E+01
 sweep: dc dc376  end,  cpu clock=  2.05E+01 peak memory=       173 mb
 sweep: dc dc377  begin, #sweeps= 111 cpu clock=  2.05E+01
 sweep: dc dc377  end,  cpu clock=  2.05E+01 peak memory=       173 mb
 sweep: dc dc378  begin, #sweeps= 111 cpu clock=  2.05E+01
 sweep: dc dc378  end,  cpu clock=  2.05E+01 peak memory=       173 mb
 sweep: dc dc379  begin, #sweeps= 111 cpu clock=  2.05E+01
 sweep: dc dc379  end,  cpu clock=  2.05E+01 peak memory=       173 mb
 sweep: dc dc380  begin, #sweeps= 111 cpu clock=  2.05E+01
 sweep: dc dc380  end,  cpu clock=  2.05E+01 peak memory=       173 mb
 sweep: dc dc381  begin, #sweeps= 111 cpu clock=  2.05E+01
 sweep: dc dc381  end,  cpu clock=  2.05E+01 peak memory=       173 mb
 sweep: dc dc382  begin, #sweeps= 111 cpu clock=  2.05E+01
 sweep: dc dc382  end,  cpu clock=  2.05E+01 peak memory=       173 mb
 sweep: dc dc383  begin, #sweeps= 111 cpu clock=  2.05E+01
 sweep: dc dc383  end,  cpu clock=  2.05E+01 peak memory=       173 mb
 sweep: dc dc384  begin, #sweeps= 111 cpu clock=  2.05E+01
 sweep: dc dc384  end,  cpu clock=  2.05E+01 peak memory=       173 mb
 sweep: dc dc385  begin, #sweeps= 111 cpu clock=  2.05E+01
 sweep: dc dc385  end,  cpu clock=  2.05E+01 peak memory=       173 mb
 sweep: dc dc386  begin, #sweeps= 111 cpu clock=  2.05E+01
 sweep: dc dc386  end,  cpu clock=  2.05E+01 peak memory=       173 mb
 sweep: dc dc387  begin, #sweeps= 111 cpu clock=  2.05E+01
 sweep: dc dc387  end,  cpu clock=  2.05E+01 peak memory=       173 mb
 sweep: dc dc388  begin, #sweeps= 111 cpu clock=  2.05E+01
 sweep: dc dc388  end,  cpu clock=  2.05E+01 peak memory=       173 mb
 sweep: dc dc389  begin, #sweeps= 111 cpu clock=  2.05E+01
 sweep: dc dc389  end,  cpu clock=  2.05E+01 peak memory=       173 mb
 sweep: dc dc390  begin, #sweeps= 111 cpu clock=  2.05E+01
 sweep: dc dc390  end,  cpu clock=  2.05E+01 peak memory=       173 mb
 sweep: dc dc391  begin, #sweeps= 111 cpu clock=  2.05E+01
 sweep: dc dc391  end,  cpu clock=  2.05E+01 peak memory=       173 mb
 sweep: dc dc392  begin, #sweeps= 111 cpu clock=  2.05E+01
 sweep: dc dc392  end,  cpu clock=  2.05E+01 peak memory=       173 mb
 sweep: dc dc393  begin, #sweeps= 111 cpu clock=  2.05E+01
 sweep: dc dc393  end,  cpu clock=  2.05E+01 peak memory=       173 mb
 sweep: dc dc394  begin, #sweeps= 111 cpu clock=  2.05E+01
 sweep: dc dc394  end,  cpu clock=  2.05E+01 peak memory=       173 mb
 sweep: dc dc395  begin, #sweeps= 111 cpu clock=  2.05E+01
 sweep: dc dc395  end,  cpu clock=  2.05E+01 peak memory=       173 mb
 sweep: dc dc396  begin, #sweeps= 111 cpu clock=  2.05E+01
 sweep: dc dc396  end,  cpu clock=  2.05E+01 peak memory=       173 mb
 sweep: dc dc397  begin, #sweeps= 111 cpu clock=  2.05E+01
 sweep: dc dc397  end,  cpu clock=  2.05E+01 peak memory=       173 mb
 sweep: dc dc398  begin, #sweeps= 111 cpu clock=  2.05E+01
 sweep: dc dc398  end,  cpu clock=  2.05E+01 peak memory=       173 mb
 sweep: dc dc399  begin, #sweeps= 111 cpu clock=  2.05E+01
 sweep: dc dc399  end,  cpu clock=  2.06E+01 peak memory=       173 mb
 sweep: dc dc400  begin, #sweeps= 111 cpu clock=  2.06E+01
 sweep: dc dc400  end,  cpu clock=  2.06E+01 peak memory=       173 mb
 sweep: dc dc401  begin, #sweeps= 111 cpu clock=  2.06E+01
 sweep: dc dc401  end,  cpu clock=  2.06E+01 peak memory=       173 mb
 sweep: dc dc402  begin, #sweeps= 111 cpu clock=  2.06E+01
 sweep: dc dc402  end,  cpu clock=  2.06E+01 peak memory=       173 mb
 sweep: dc dc403  begin, #sweeps= 111 cpu clock=  2.06E+01
 sweep: dc dc403  end,  cpu clock=  2.06E+01 peak memory=       173 mb
 sweep: dc dc404  begin, #sweeps= 111 cpu clock=  2.06E+01
 sweep: dc dc404  end,  cpu clock=  2.06E+01 peak memory=       173 mb
 sweep: dc dc405  begin, #sweeps= 111 cpu clock=  2.06E+01
 sweep: dc dc405  end,  cpu clock=  2.06E+01 peak memory=       173 mb
 sweep: dc dc406  begin, #sweeps= 111 cpu clock=  2.06E+01
 sweep: dc dc406  end,  cpu clock=  2.06E+01 peak memory=       173 mb
 sweep: dc dc407  begin, #sweeps= 111 cpu clock=  2.06E+01
 sweep: dc dc407  end,  cpu clock=  2.06E+01 peak memory=       173 mb
 sweep: dc dc408  begin, #sweeps= 111 cpu clock=  2.06E+01
 sweep: dc dc408  end,  cpu clock=  2.06E+01 peak memory=       173 mb
 sweep: dc dc409  begin, #sweeps= 111 cpu clock=  2.06E+01
 sweep: dc dc409  end,  cpu clock=  2.06E+01 peak memory=       173 mb
 sweep: dc dc410  begin, #sweeps= 111 cpu clock=  2.06E+01
 sweep: dc dc410  end,  cpu clock=  2.06E+01 peak memory=       173 mb
 sweep: dc dc411  begin, #sweeps= 111 cpu clock=  2.06E+01
 sweep: dc dc411  end,  cpu clock=  2.06E+01 peak memory=       173 mb
 sweep: dc dc412  begin, #sweeps= 111 cpu clock=  2.06E+01
 sweep: dc dc412  end,  cpu clock=  2.06E+01 peak memory=       173 mb
 sweep: dc dc413  begin, #sweeps= 111 cpu clock=  2.06E+01
 sweep: dc dc413  end,  cpu clock=  2.06E+01 peak memory=       173 mb
 sweep: dc dc414  begin, #sweeps= 111 cpu clock=  2.06E+01
 sweep: dc dc414  end,  cpu clock=  2.06E+01 peak memory=       173 mb
 sweep: dc dc415  begin, #sweeps= 111 cpu clock=  2.06E+01
 sweep: dc dc415  end,  cpu clock=  2.06E+01 peak memory=       173 mb
 sweep: dc dc416  begin, #sweeps= 111 cpu clock=  2.06E+01
 sweep: dc dc416  end,  cpu clock=  2.06E+01 peak memory=       173 mb
 sweep: dc dc417  begin, #sweeps= 111 cpu clock=  2.06E+01
 sweep: dc dc417  end,  cpu clock=  2.06E+01 peak memory=       173 mb
 sweep: dc dc418  begin, #sweeps= 111 cpu clock=  2.06E+01
 sweep: dc dc418  end,  cpu clock=  2.06E+01 peak memory=       173 mb
 sweep: dc dc419  begin, #sweeps= 111 cpu clock=  2.06E+01
 sweep: dc dc419  end,  cpu clock=  2.06E+01 peak memory=       173 mb
 sweep: dc dc420  begin, #sweeps= 111 cpu clock=  2.06E+01
 sweep: dc dc420  end,  cpu clock=  2.06E+01 peak memory=       173 mb
 sweep: dc dc421  begin, #sweeps= 111 cpu clock=  2.06E+01
 sweep: dc dc421  end,  cpu clock=  2.06E+01 peak memory=       173 mb
 sweep: dc dc422  begin, #sweeps= 111 cpu clock=  2.06E+01
 sweep: dc dc422  end,  cpu clock=  2.06E+01 peak memory=       173 mb
 sweep: dc dc423  begin, #sweeps= 111 cpu clock=  2.06E+01
 sweep: dc dc423  end,  cpu clock=  2.06E+01 peak memory=       173 mb
 sweep: dc dc424  begin, #sweeps= 111 cpu clock=  2.06E+01
 sweep: dc dc424  end,  cpu clock=  2.07E+01 peak memory=       173 mb
 sweep: dc dc425  begin, #sweeps= 111 cpu clock=  2.07E+01
 sweep: dc dc425  end,  cpu clock=  2.07E+01 peak memory=       173 mb
 sweep: dc dc426  begin, #sweeps= 111 cpu clock=  2.07E+01
 sweep: dc dc426  end,  cpu clock=  2.07E+01 peak memory=       173 mb
 sweep: dc dc427  begin, #sweeps= 111 cpu clock=  2.07E+01
 sweep: dc dc427  end,  cpu clock=  2.07E+01 peak memory=       173 mb
 sweep: dc dc428  begin, #sweeps= 111 cpu clock=  2.07E+01
 sweep: dc dc428  end,  cpu clock=  2.07E+01 peak memory=       173 mb
 sweep: dc dc429  begin, #sweeps= 111 cpu clock=  2.07E+01
 sweep: dc dc429  end,  cpu clock=  2.07E+01 peak memory=       173 mb
 sweep: dc dc430  begin, #sweeps= 111 cpu clock=  2.07E+01
 sweep: dc dc430  end,  cpu clock=  2.07E+01 peak memory=       173 mb
 sweep: dc dc431  begin, #sweeps= 111 cpu clock=  2.07E+01
 sweep: dc dc431  end,  cpu clock=  2.07E+01 peak memory=       173 mb
 sweep: dc dc432  begin, #sweeps= 111 cpu clock=  2.07E+01
 sweep: dc dc432  end,  cpu clock=  2.07E+01 peak memory=       173 mb
 sweep: dc dc433  begin, #sweeps= 111 cpu clock=  2.07E+01
 sweep: dc dc433  end,  cpu clock=  2.07E+01 peak memory=       173 mb
 sweep: dc dc434  begin, #sweeps= 111 cpu clock=  2.07E+01
 sweep: dc dc434  end,  cpu clock=  2.07E+01 peak memory=       173 mb
 sweep: dc dc435  begin, #sweeps= 111 cpu clock=  2.07E+01
 sweep: dc dc435  end,  cpu clock=  2.07E+01 peak memory=       173 mb
 sweep: dc dc436  begin, #sweeps= 111 cpu clock=  2.07E+01
 sweep: dc dc436  end,  cpu clock=  2.07E+01 peak memory=       173 mb
 sweep: dc dc437  begin, #sweeps= 111 cpu clock=  2.07E+01
 sweep: dc dc437  end,  cpu clock=  2.07E+01 peak memory=       173 mb
 sweep: dc dc438  begin, #sweeps= 111 cpu clock=  2.07E+01
 sweep: dc dc438  end,  cpu clock=  2.07E+01 peak memory=       173 mb
 sweep: dc dc439  begin, #sweeps= 111 cpu clock=  2.07E+01
 sweep: dc dc439  end,  cpu clock=  2.07E+01 peak memory=       173 mb
 sweep: dc dc440  begin, #sweeps= 111 cpu clock=  2.07E+01
 sweep: dc dc440  end,  cpu clock=  2.07E+01 peak memory=       173 mb
 sweep: dc dc441  begin, #sweeps= 111 cpu clock=  2.07E+01
 sweep: dc dc441  end,  cpu clock=  2.07E+01 peak memory=       173 mb
 sweep: dc dc442  begin, #sweeps= 111 cpu clock=  2.07E+01
 sweep: dc dc442  end,  cpu clock=  2.07E+01 peak memory=       173 mb
 sweep: dc dc443  begin, #sweeps= 111 cpu clock=  2.07E+01
 sweep: dc dc443  end,  cpu clock=  2.07E+01 peak memory=       173 mb
 sweep: dc dc444  begin, #sweeps= 111 cpu clock=  2.07E+01
 sweep: dc dc444  end,  cpu clock=  2.07E+01 peak memory=       173 mb
 sweep: dc dc445  begin, #sweeps= 111 cpu clock=  2.07E+01
 sweep: dc dc445  end,  cpu clock=  2.07E+01 peak memory=       173 mb
 sweep: dc dc446  begin, #sweeps= 111 cpu clock=  2.07E+01
 sweep: dc dc446  end,  cpu clock=  2.07E+01 peak memory=       173 mb
 sweep: dc dc447  begin, #sweeps= 111 cpu clock=  2.07E+01
 sweep: dc dc447  end,  cpu clock=  2.07E+01 peak memory=       173 mb
 sweep: dc dc448  begin, #sweeps= 111 cpu clock=  2.07E+01
 sweep: dc dc448  end,  cpu clock=  2.07E+01 peak memory=       173 mb
 sweep: dc dc449  begin, #sweeps= 111 cpu clock=  2.07E+01
 sweep: dc dc449  end,  cpu clock=  2.08E+01 peak memory=       173 mb
 sweep: dc dc450  begin, #sweeps= 111 cpu clock=  2.08E+01
 sweep: dc dc450  end,  cpu clock=  2.08E+01 peak memory=       173 mb
 sweep: dc dc451  begin, #sweeps= 111 cpu clock=  2.08E+01
 sweep: dc dc451  end,  cpu clock=  2.08E+01 peak memory=       173 mb
 sweep: dc dc452  begin, #sweeps= 111 cpu clock=  2.08E+01
 sweep: dc dc452  end,  cpu clock=  2.08E+01 peak memory=       173 mb
 sweep: dc dc453  begin, #sweeps= 111 cpu clock=  2.08E+01
 sweep: dc dc453  end,  cpu clock=  2.08E+01 peak memory=       173 mb
 sweep: dc dc454  begin, #sweeps= 111 cpu clock=  2.08E+01
 sweep: dc dc454  end,  cpu clock=  2.08E+01 peak memory=       173 mb
 sweep: dc dc455  begin, #sweeps= 111 cpu clock=  2.08E+01
 sweep: dc dc455  end,  cpu clock=  2.08E+01 peak memory=       173 mb
 sweep: dc dc456  begin, #sweeps= 111 cpu clock=  2.08E+01
 sweep: dc dc456  end,  cpu clock=  2.08E+01 peak memory=       173 mb
 sweep: dc dc457  begin, #sweeps= 111 cpu clock=  2.08E+01
 sweep: dc dc457  end,  cpu clock=  2.08E+01 peak memory=       173 mb
 sweep: dc dc458  begin, #sweeps= 111 cpu clock=  2.08E+01
 sweep: dc dc458  end,  cpu clock=  2.08E+01 peak memory=       173 mb
 sweep: dc dc459  begin, #sweeps= 111 cpu clock=  2.08E+01
 sweep: dc dc459  end,  cpu clock=  2.08E+01 peak memory=       173 mb
 sweep: dc dc460  begin, #sweeps= 111 cpu clock=  2.08E+01
 sweep: dc dc460  end,  cpu clock=  2.08E+01 peak memory=       173 mb
 sweep: dc dc461  begin, #sweeps= 111 cpu clock=  2.08E+01
 sweep: dc dc461  end,  cpu clock=  2.08E+01 peak memory=       173 mb
 sweep: dc dc462  begin, #sweeps= 111 cpu clock=  2.08E+01
 sweep: dc dc462  end,  cpu clock=  2.08E+01 peak memory=       173 mb
 sweep: dc dc463  begin, #sweeps= 111 cpu clock=  2.08E+01
 sweep: dc dc463  end,  cpu clock=  2.08E+01 peak memory=       173 mb
 sweep: dc dc464  begin, #sweeps= 111 cpu clock=  2.08E+01
 sweep: dc dc464  end,  cpu clock=  2.08E+01 peak memory=       173 mb
 sweep: dc dc465  begin, #sweeps= 111 cpu clock=  2.08E+01
 sweep: dc dc465  end,  cpu clock=  2.08E+01 peak memory=       173 mb
 sweep: dc dc466  begin, #sweeps= 111 cpu clock=  2.08E+01
 sweep: dc dc466  end,  cpu clock=  2.08E+01 peak memory=       173 mb
 sweep: dc dc467  begin, #sweeps= 111 cpu clock=  2.08E+01
 sweep: dc dc467  end,  cpu clock=  2.08E+01 peak memory=       173 mb
 sweep: dc dc468  begin, #sweeps= 111 cpu clock=  2.08E+01
 sweep: dc dc468  end,  cpu clock=  2.08E+01 peak memory=       173 mb
 sweep: dc dc469  begin, #sweeps= 111 cpu clock=  2.08E+01
 sweep: dc dc469  end,  cpu clock=  2.08E+01 peak memory=       173 mb
 sweep: dc dc470  begin, #sweeps= 111 cpu clock=  2.08E+01
 sweep: dc dc470  end,  cpu clock=  2.08E+01 peak memory=       173 mb
 sweep: dc dc471  begin, #sweeps= 111 cpu clock=  2.08E+01
 sweep: dc dc471  end,  cpu clock=  2.08E+01 peak memory=       173 mb
 sweep: dc dc472  begin, #sweeps= 111 cpu clock=  2.08E+01
 sweep: dc dc472  end,  cpu clock=  2.08E+01 peak memory=       173 mb
 sweep: dc dc473  begin, #sweeps= 111 cpu clock=  2.08E+01
 sweep: dc dc473  end,  cpu clock=  2.08E+01 peak memory=       173 mb
 sweep: dc dc474  begin, #sweeps= 111 cpu clock=  2.08E+01
 sweep: dc dc474  end,  cpu clock=  2.08E+01 peak memory=       173 mb
 sweep: dc dc475  begin, #sweeps= 111 cpu clock=  2.09E+01
 sweep: dc dc475  end,  cpu clock=  2.09E+01 peak memory=       173 mb
 sweep: dc dc476  begin, #sweeps= 111 cpu clock=  2.09E+01
 sweep: dc dc476  end,  cpu clock=  2.09E+01 peak memory=       173 mb
 sweep: dc dc477  begin, #sweeps= 111 cpu clock=  2.09E+01
 sweep: dc dc477  end,  cpu clock=  2.09E+01 peak memory=       173 mb
 sweep: dc dc478  begin, #sweeps= 111 cpu clock=  2.09E+01
 sweep: dc dc478  end,  cpu clock=  2.09E+01 peak memory=       173 mb
 sweep: dc dc479  begin, #sweeps= 111 cpu clock=  2.09E+01
 sweep: dc dc479  end,  cpu clock=  2.09E+01 peak memory=       173 mb
 sweep: dc dc480  begin, #sweeps= 111 cpu clock=  2.09E+01
 sweep: dc dc480  end,  cpu clock=  2.09E+01 peak memory=       173 mb
 sweep: dc dc481  begin, #sweeps= 111 cpu clock=  2.09E+01
 sweep: dc dc481  end,  cpu clock=  2.09E+01 peak memory=       173 mb
 sweep: dc dc482  begin, #sweeps= 111 cpu clock=  2.09E+01
 sweep: dc dc482  end,  cpu clock=  2.09E+01 peak memory=       173 mb
 sweep: dc dc483  begin, #sweeps= 111 cpu clock=  2.09E+01
 sweep: dc dc483  end,  cpu clock=  2.09E+01 peak memory=       173 mb
 sweep: dc dc484  begin, #sweeps= 111 cpu clock=  2.09E+01
 sweep: dc dc484  end,  cpu clock=  2.09E+01 peak memory=       173 mb
 sweep: dc dc485  begin, #sweeps= 111 cpu clock=  2.09E+01
 sweep: dc dc485  end,  cpu clock=  2.09E+01 peak memory=       173 mb
 sweep: dc dc486  begin, #sweeps= 111 cpu clock=  2.09E+01
 sweep: dc dc486  end,  cpu clock=  2.09E+01 peak memory=       173 mb
 sweep: dc dc487  begin, #sweeps= 111 cpu clock=  2.09E+01
 sweep: dc dc487  end,  cpu clock=  2.09E+01 peak memory=       173 mb
 sweep: dc dc488  begin, #sweeps= 111 cpu clock=  2.09E+01
 sweep: dc dc488  end,  cpu clock=  2.09E+01 peak memory=       173 mb
 sweep: dc dc489  begin, #sweeps= 111 cpu clock=  2.09E+01
 sweep: dc dc489  end,  cpu clock=  2.09E+01 peak memory=       173 mb
 sweep: dc dc490  begin, #sweeps= 111 cpu clock=  2.09E+01
 sweep: dc dc490  end,  cpu clock=  2.09E+01 peak memory=       173 mb
 sweep: dc dc491  begin, #sweeps= 111 cpu clock=  2.09E+01
 sweep: dc dc491  end,  cpu clock=  2.09E+01 peak memory=       173 mb
 sweep: dc dc492  begin, #sweeps= 111 cpu clock=  2.09E+01
 sweep: dc dc492  end,  cpu clock=  2.09E+01 peak memory=       173 mb
 sweep: dc dc493  begin, #sweeps= 111 cpu clock=  2.09E+01
 sweep: dc dc493  end,  cpu clock=  2.09E+01 peak memory=       173 mb
 sweep: dc dc494  begin, #sweeps= 111 cpu clock=  2.09E+01
 sweep: dc dc494  end,  cpu clock=  2.09E+01 peak memory=       173 mb
 sweep: dc dc495  begin, #sweeps= 111 cpu clock=  2.09E+01
 sweep: dc dc495  end,  cpu clock=  2.09E+01 peak memory=       173 mb
 sweep: dc dc496  begin, #sweeps= 111 cpu clock=  2.09E+01
 sweep: dc dc496  end,  cpu clock=  2.09E+01 peak memory=       173 mb
 sweep: dc dc497  begin, #sweeps= 111 cpu clock=  2.09E+01
 sweep: dc dc497  end,  cpu clock=  2.09E+01 peak memory=       173 mb
 sweep: dc dc498  begin, #sweeps= 111 cpu clock=  2.09E+01
 sweep: dc dc498  end,  cpu clock=  2.09E+01 peak memory=       173 mb
 sweep: dc dc499  begin, #sweeps= 111 cpu clock=  2.09E+01
 sweep: dc dc499  end,  cpu clock=  2.09E+01 peak memory=       173 mb
 sweep: dc dc500  begin, #sweeps= 111 cpu clock=  2.09E+01
 sweep: dc dc500  end,  cpu clock=  2.10E+01 peak memory=       173 mb
 sweep: dc dc501  begin, #sweeps= 111 cpu clock=  2.10E+01
 sweep: dc dc501  end,  cpu clock=  2.10E+01 peak memory=       173 mb
 sweep: dc dc502  begin, #sweeps= 111 cpu clock=  2.10E+01
 sweep: dc dc502  end,  cpu clock=  2.10E+01 peak memory=       173 mb
 sweep: dc dc503  begin, #sweeps= 111 cpu clock=  2.10E+01
 sweep: dc dc503  end,  cpu clock=  2.10E+01 peak memory=       173 mb
 sweep: dc dc504  begin, #sweeps= 111 cpu clock=  2.10E+01
 sweep: dc dc504  end,  cpu clock=  2.10E+01 peak memory=       173 mb
 sweep: dc dc505  begin, #sweeps= 111 cpu clock=  2.10E+01
 sweep: dc dc505  end,  cpu clock=  2.10E+01 peak memory=       173 mb
 sweep: dc dc506  begin, #sweeps= 111 cpu clock=  2.10E+01
 sweep: dc dc506  end,  cpu clock=  2.10E+01 peak memory=       173 mb
 sweep: dc dc507  begin, #sweeps= 111 cpu clock=  2.10E+01
 sweep: dc dc507  end,  cpu clock=  2.10E+01 peak memory=       173 mb
 sweep: dc dc508  begin, #sweeps= 111 cpu clock=  2.10E+01
 sweep: dc dc508  end,  cpu clock=  2.10E+01 peak memory=       173 mb
 sweep: dc dc509  begin, #sweeps= 111 cpu clock=  2.10E+01
 sweep: dc dc509  end,  cpu clock=  2.10E+01 peak memory=       173 mb
 sweep: dc dc510  begin, #sweeps= 111 cpu clock=  2.10E+01
 sweep: dc dc510  end,  cpu clock=  2.10E+01 peak memory=       173 mb
 sweep: dc dc511  begin, #sweeps= 111 cpu clock=  2.10E+01
 sweep: dc dc511  end,  cpu clock=  2.10E+01 peak memory=       173 mb
 sweep: dc dc512  begin, #sweeps= 111 cpu clock=  2.10E+01
 sweep: dc dc512  end,  cpu clock=  2.10E+01 peak memory=       173 mb
 sweep: dc dc513  begin, #sweeps= 111 cpu clock=  2.10E+01
 sweep: dc dc513  end,  cpu clock=  2.10E+01 peak memory=       173 mb
 sweep: dc dc514  begin, #sweeps= 111 cpu clock=  2.10E+01
 sweep: dc dc514  end,  cpu clock=  2.10E+01 peak memory=       173 mb
 sweep: dc dc515  begin, #sweeps= 111 cpu clock=  2.10E+01
 sweep: dc dc515  end,  cpu clock=  2.10E+01 peak memory=       173 mb
 sweep: dc dc516  begin, #sweeps= 111 cpu clock=  2.10E+01
 sweep: dc dc516  end,  cpu clock=  2.10E+01 peak memory=       173 mb
 sweep: dc dc517  begin, #sweeps= 111 cpu clock=  2.10E+01
 sweep: dc dc517  end,  cpu clock=  2.10E+01 peak memory=       173 mb
 sweep: dc dc518  begin, #sweeps= 111 cpu clock=  2.10E+01
 sweep: dc dc518  end,  cpu clock=  2.10E+01 peak memory=       173 mb
 sweep: dc dc519  begin, #sweeps= 111 cpu clock=  2.10E+01
 sweep: dc dc519  end,  cpu clock=  2.10E+01 peak memory=       173 mb
 sweep: dc dc520  begin, #sweeps= 111 cpu clock=  2.10E+01
 sweep: dc dc520  end,  cpu clock=  2.10E+01 peak memory=       173 mb
 sweep: dc dc521  begin, #sweeps= 111 cpu clock=  2.10E+01
 sweep: dc dc521  end,  cpu clock=  2.10E+01 peak memory=       173 mb
 sweep: dc dc522  begin, #sweeps= 111 cpu clock=  2.10E+01
 sweep: dc dc522  end,  cpu clock=  2.10E+01 peak memory=       173 mb
 sweep: dc dc523  begin, #sweeps= 111 cpu clock=  2.10E+01
 sweep: dc dc523  end,  cpu clock=  2.10E+01 peak memory=       173 mb
 sweep: dc dc524  begin, #sweeps= 111 cpu clock=  2.10E+01
 sweep: dc dc524  end,  cpu clock=  2.10E+01 peak memory=       173 mb
 sweep: dc dc525  begin, #sweeps= 111 cpu clock=  2.10E+01
 sweep: dc dc525  end,  cpu clock=  2.10E+01 peak memory=       173 mb
 sweep: dc dc526  begin, #sweeps= 111 cpu clock=  2.11E+01
 sweep: dc dc526  end,  cpu clock=  2.11E+01 peak memory=       173 mb
 sweep: dc dc527  begin, #sweeps= 111 cpu clock=  2.11E+01
 sweep: dc dc527  end,  cpu clock=  2.11E+01 peak memory=       173 mb
 sweep: dc dc528  begin, #sweeps= 111 cpu clock=  2.11E+01
 sweep: dc dc528  end,  cpu clock=  2.11E+01 peak memory=       173 mb
 sweep: dc dc529  begin, #sweeps= 111 cpu clock=  2.11E+01
 sweep: dc dc529  end,  cpu clock=  2.11E+01 peak memory=       173 mb
 sweep: dc dc530  begin, #sweeps= 111 cpu clock=  2.11E+01
 sweep: dc dc530  end,  cpu clock=  2.11E+01 peak memory=       173 mb
 sweep: dc dc531  begin, #sweeps= 111 cpu clock=  2.11E+01
 sweep: dc dc531  end,  cpu clock=  2.11E+01 peak memory=       173 mb
 sweep: dc dc532  begin, #sweeps= 111 cpu clock=  2.11E+01
 sweep: dc dc532  end,  cpu clock=  2.11E+01 peak memory=       173 mb
 sweep: dc dc533  begin, #sweeps= 111 cpu clock=  2.11E+01
 sweep: dc dc533  end,  cpu clock=  2.11E+01 peak memory=       173 mb
 sweep: dc dc534  begin, #sweeps= 111 cpu clock=  2.11E+01
 sweep: dc dc534  end,  cpu clock=  2.11E+01 peak memory=       173 mb
 sweep: dc dc535  begin, #sweeps= 111 cpu clock=  2.11E+01
 sweep: dc dc535  end,  cpu clock=  2.11E+01 peak memory=       173 mb
 sweep: dc dc536  begin, #sweeps= 111 cpu clock=  2.11E+01
 sweep: dc dc536  end,  cpu clock=  2.11E+01 peak memory=       173 mb
 sweep: dc dc537  begin, #sweeps= 111 cpu clock=  2.11E+01
 sweep: dc dc537  end,  cpu clock=  2.11E+01 peak memory=       173 mb
 sweep: dc dc538  begin, #sweeps= 111 cpu clock=  2.11E+01
 sweep: dc dc538  end,  cpu clock=  2.11E+01 peak memory=       173 mb
 sweep: dc dc539  begin, #sweeps= 111 cpu clock=  2.11E+01
 sweep: dc dc539  end,  cpu clock=  2.11E+01 peak memory=       173 mb
 sweep: dc dc540  begin, #sweeps= 111 cpu clock=  2.11E+01
 sweep: dc dc540  end,  cpu clock=  2.11E+01 peak memory=       173 mb
 sweep: dc dc541  begin, #sweeps= 111 cpu clock=  2.11E+01
 sweep: dc dc541  end,  cpu clock=  2.11E+01 peak memory=       173 mb
 sweep: dc dc542  begin, #sweeps= 111 cpu clock=  2.11E+01
 sweep: dc dc542  end,  cpu clock=  2.11E+01 peak memory=       173 mb
 sweep: dc dc543  begin, #sweeps= 111 cpu clock=  2.11E+01
 sweep: dc dc543  end,  cpu clock=  2.11E+01 peak memory=       173 mb
 sweep: dc dc544  begin, #sweeps= 111 cpu clock=  2.11E+01
 sweep: dc dc544  end,  cpu clock=  2.11E+01 peak memory=       173 mb
 sweep: dc dc545  begin, #sweeps= 111 cpu clock=  2.11E+01
 sweep: dc dc545  end,  cpu clock=  2.11E+01 peak memory=       173 mb
 sweep: dc dc546  begin, #sweeps= 111 cpu clock=  2.11E+01
 sweep: dc dc546  end,  cpu clock=  2.11E+01 peak memory=       173 mb
 sweep: dc dc547  begin, #sweeps= 111 cpu clock=  2.11E+01
 sweep: dc dc547  end,  cpu clock=  2.11E+01 peak memory=       173 mb
 sweep: dc dc548  begin, #sweeps= 111 cpu clock=  2.11E+01
 sweep: dc dc548  end,  cpu clock=  2.11E+01 peak memory=       173 mb
 sweep: dc dc549  begin, #sweeps= 111 cpu clock=  2.11E+01
 sweep: dc dc549  end,  cpu clock=  2.11E+01 peak memory=       173 mb
 sweep: dc dc550  begin, #sweeps= 111 cpu clock=  2.11E+01
 sweep: dc dc550  end,  cpu clock=  2.11E+01 peak memory=       173 mb
 sweep: dc dc551  begin, #sweeps= 111 cpu clock=  2.11E+01
 sweep: dc dc551  end,  cpu clock=  2.12E+01 peak memory=       173 mb
 sweep: dc dc552  begin, #sweeps= 111 cpu clock=  2.12E+01
 sweep: dc dc552  end,  cpu clock=  2.12E+01 peak memory=       173 mb
 sweep: dc dc553  begin, #sweeps= 111 cpu clock=  2.12E+01
 sweep: dc dc553  end,  cpu clock=  2.12E+01 peak memory=       173 mb
 sweep: dc dc554  begin, #sweeps= 111 cpu clock=  2.12E+01
 sweep: dc dc554  end,  cpu clock=  2.12E+01 peak memory=       173 mb
 sweep: dc dc555  begin, #sweeps= 111 cpu clock=  2.12E+01
 sweep: dc dc555  end,  cpu clock=  2.12E+01 peak memory=       173 mb
 sweep: dc dc556  begin, #sweeps= 111 cpu clock=  2.12E+01
 sweep: dc dc556  end,  cpu clock=  2.12E+01 peak memory=       173 mb
 sweep: dc dc557  begin, #sweeps= 111 cpu clock=  2.12E+01
 sweep: dc dc557  end,  cpu clock=  2.12E+01 peak memory=       173 mb
 sweep: dc dc558  begin, #sweeps= 111 cpu clock=  2.12E+01
 sweep: dc dc558  end,  cpu clock=  2.12E+01 peak memory=       173 mb
 sweep: dc dc559  begin, #sweeps= 111 cpu clock=  2.12E+01
 sweep: dc dc559  end,  cpu clock=  2.12E+01 peak memory=       173 mb
 sweep: dc dc560  begin, #sweeps= 111 cpu clock=  2.12E+01
 sweep: dc dc560  end,  cpu clock=  2.12E+01 peak memory=       173 mb
 sweep: dc dc561  begin, #sweeps= 111 cpu clock=  2.12E+01
 sweep: dc dc561  end,  cpu clock=  2.12E+01 peak memory=       173 mb
 sweep: dc dc562  begin, #sweeps= 111 cpu clock=  2.12E+01
 sweep: dc dc562  end,  cpu clock=  2.12E+01 peak memory=       173 mb
 sweep: dc dc563  begin, #sweeps= 111 cpu clock=  2.12E+01
 sweep: dc dc563  end,  cpu clock=  2.12E+01 peak memory=       173 mb
 sweep: dc dc564  begin, #sweeps= 111 cpu clock=  2.12E+01
 sweep: dc dc564  end,  cpu clock=  2.12E+01 peak memory=       173 mb
 sweep: dc dc565  begin, #sweeps= 111 cpu clock=  2.12E+01
 sweep: dc dc565  end,  cpu clock=  2.12E+01 peak memory=       173 mb
 sweep: dc dc566  begin, #sweeps= 111 cpu clock=  2.12E+01
 sweep: dc dc566  end,  cpu clock=  2.12E+01 peak memory=       173 mb
 sweep: dc dc567  begin, #sweeps= 111 cpu clock=  2.12E+01
 sweep: dc dc567  end,  cpu clock=  2.12E+01 peak memory=       173 mb
 sweep: dc dc568  begin, #sweeps= 111 cpu clock=  2.12E+01
 sweep: dc dc568  end,  cpu clock=  2.12E+01 peak memory=       173 mb
 sweep: dc dc569  begin, #sweeps= 111 cpu clock=  2.12E+01
 sweep: dc dc569  end,  cpu clock=  2.12E+01 peak memory=       173 mb
 sweep: dc dc570  begin, #sweeps= 111 cpu clock=  2.12E+01
 sweep: dc dc570  end,  cpu clock=  2.12E+01 peak memory=       173 mb
 sweep: dc dc571  begin, #sweeps= 111 cpu clock=  2.12E+01
 sweep: dc dc571  end,  cpu clock=  2.12E+01 peak memory=       173 mb
 sweep: dc dc572  begin, #sweeps= 111 cpu clock=  2.12E+01
 sweep: dc dc572  end,  cpu clock=  2.12E+01 peak memory=       173 mb
 sweep: dc dc573  begin, #sweeps= 111 cpu clock=  2.12E+01
 sweep: dc dc573  end,  cpu clock=  2.12E+01 peak memory=       173 mb
 sweep: dc dc574  begin, #sweeps= 111 cpu clock=  2.12E+01
 sweep: dc dc574  end,  cpu clock=  2.12E+01 peak memory=       173 mb
 sweep: dc dc575  begin, #sweeps= 111 cpu clock=  2.12E+01
 sweep: dc dc575  end,  cpu clock=  2.12E+01 peak memory=       173 mb
 sweep: dc dc576  begin, #sweeps= 111 cpu clock=  2.12E+01
 sweep: dc dc576  end,  cpu clock=  2.12E+01 peak memory=       173 mb
 sweep: dc dc577  begin, #sweeps= 111 cpu clock=  2.13E+01
 sweep: dc dc577  end,  cpu clock=  2.13E+01 peak memory=       173 mb
 sweep: dc dc578  begin, #sweeps= 111 cpu clock=  2.13E+01
 sweep: dc dc578  end,  cpu clock=  2.13E+01 peak memory=       173 mb
 sweep: dc dc579  begin, #sweeps= 111 cpu clock=  2.13E+01
 sweep: dc dc579  end,  cpu clock=  2.13E+01 peak memory=       173 mb
 sweep: dc dc580  begin, #sweeps= 111 cpu clock=  2.13E+01
 sweep: dc dc580  end,  cpu clock=  2.13E+01 peak memory=       173 mb
 sweep: dc dc581  begin, #sweeps= 111 cpu clock=  2.13E+01
 sweep: dc dc581  end,  cpu clock=  2.13E+01 peak memory=       173 mb
 sweep: dc dc582  begin, #sweeps= 111 cpu clock=  2.13E+01
 sweep: dc dc582  end,  cpu clock=  2.13E+01 peak memory=       173 mb
 sweep: dc dc583  begin, #sweeps= 111 cpu clock=  2.13E+01
 sweep: dc dc583  end,  cpu clock=  2.13E+01 peak memory=       173 mb
 sweep: dc dc584  begin, #sweeps= 111 cpu clock=  2.13E+01
 sweep: dc dc584  end,  cpu clock=  2.13E+01 peak memory=       173 mb
 sweep: dc dc585  begin, #sweeps= 111 cpu clock=  2.13E+01
 sweep: dc dc585  end,  cpu clock=  2.13E+01 peak memory=       173 mb
 sweep: dc dc586  begin, #sweeps= 111 cpu clock=  2.13E+01
 sweep: dc dc586  end,  cpu clock=  2.13E+01 peak memory=       173 mb
 sweep: dc dc587  begin, #sweeps= 111 cpu clock=  2.13E+01
 sweep: dc dc587  end,  cpu clock=  2.13E+01 peak memory=       173 mb
 sweep: dc dc588  begin, #sweeps= 111 cpu clock=  2.13E+01
 sweep: dc dc588  end,  cpu clock=  2.13E+01 peak memory=       173 mb
 sweep: dc dc589  begin, #sweeps= 111 cpu clock=  2.13E+01
 sweep: dc dc589  end,  cpu clock=  2.13E+01 peak memory=       173 mb
 sweep: dc dc590  begin, #sweeps= 111 cpu clock=  2.13E+01
 sweep: dc dc590  end,  cpu clock=  2.13E+01 peak memory=       173 mb
 sweep: dc dc591  begin, #sweeps= 111 cpu clock=  2.13E+01
 sweep: dc dc591  end,  cpu clock=  2.13E+01 peak memory=       173 mb
 sweep: dc dc592  begin, #sweeps= 111 cpu clock=  2.13E+01
 sweep: dc dc592  end,  cpu clock=  2.13E+01 peak memory=       173 mb
 sweep: dc dc593  begin, #sweeps= 111 cpu clock=  2.13E+01
 sweep: dc dc593  end,  cpu clock=  2.13E+01 peak memory=       173 mb
 sweep: dc dc594  begin, #sweeps= 111 cpu clock=  2.13E+01
 sweep: dc dc594  end,  cpu clock=  2.13E+01 peak memory=       173 mb
 sweep: dc dc595  begin, #sweeps= 111 cpu clock=  2.13E+01
 sweep: dc dc595  end,  cpu clock=  2.13E+01 peak memory=       173 mb
 sweep: dc dc596  begin, #sweeps= 111 cpu clock=  2.13E+01
 sweep: dc dc596  end,  cpu clock=  2.13E+01 peak memory=       173 mb
 sweep: dc dc597  begin, #sweeps= 111 cpu clock=  2.13E+01
 sweep: dc dc597  end,  cpu clock=  2.13E+01 peak memory=       173 mb
 sweep: dc dc598  begin, #sweeps= 111 cpu clock=  2.13E+01
 sweep: dc dc598  end,  cpu clock=  2.13E+01 peak memory=       173 mb
 sweep: dc dc599  begin, #sweeps= 111 cpu clock=  2.13E+01
[...]
 sweep: dc dc2348 end,  cpu clock=  2.83E+01 peak memory=       173 mb
 sweep: dc dc2349 begin, #sweeps= 111 cpu clock=  2.83E+01
 sweep: dc dc2349 end,  cpu clock=  2.83E+01 peak memory=       173 mb
 sweep: dc dc2350 begin, #sweeps= 111 cpu clock=  2.83E+01
 sweep: dc dc2350 end,  cpu clock=  2.83E+01 peak memory=       173 mb
 sweep: dc dc2351 begin, #sweeps= 111 cpu clock=  2.83E+01
 sweep: dc dc2351 end,  cpu clock=  2.83E+01 peak memory=       173 mb
 sweep: dc dc2352 begin, #sweeps= 111 cpu clock=  2.83E+01
 sweep: dc dc2352 end,  cpu clock=  2.83E+01 peak memory=       173 mb
 sweep: dc dc2353 begin, #sweeps= 111 cpu clock=  2.83E+01
 sweep: dc dc2353 end,  cpu clock=  2.83E+01 peak memory=       173 mb
 sweep: dc dc2354 begin, #sweeps= 111 cpu clock=  2.83E+01
 sweep: dc dc2354 end,  cpu clock=  2.83E+01 peak memory=       173 mb
 sweep: dc dc2355 begin, #sweeps= 111 cpu clock=  2.83E+01
 sweep: dc dc2355 end,  cpu clock=  2.83E+01 peak memory=       173 mb
 sweep: dc dc2356 begin, #sweeps= 111 cpu clock=  2.83E+01
 sweep: dc dc2356 end,  cpu clock=  2.83E+01 peak memory=       173 mb
 sweep: dc dc2357 begin, #sweeps= 111 cpu clock=  2.83E+01
 sweep: dc dc2357 end,  cpu clock=  2.83E+01 peak memory=       173 mb
 sweep: dc dc2358 begin, #sweeps= 111 cpu clock=  2.83E+01
 sweep: dc dc2358 end,  cpu clock=  2.83E+01 peak memory=       173 mb
 sweep: dc dc2359 begin, #sweeps= 111 cpu clock=  2.83E+01
 sweep: dc dc2359 end,  cpu clock=  2.83E+01 peak memory=       173 mb
 sweep: dc dc2360 begin, #sweeps= 111 cpu clock=  2.83E+01
 sweep: dc dc2360 end,  cpu clock=  2.83E+01 peak memory=       173 mb
 sweep: dc dc2361 begin, #sweeps= 111 cpu clock=  2.83E+01
 sweep: dc dc2361 end,  cpu clock=  2.83E+01 peak memory=       173 mb
 sweep: dc dc2362 begin, #sweeps= 111 cpu clock=  2.83E+01
 sweep: dc dc2362 end,  cpu clock=  2.83E+01 peak memory=       173 mb
 sweep: dc dc2363 begin, #sweeps= 111 cpu clock=  2.83E+01
 sweep: dc dc2363 end,  cpu clock=  2.83E+01 peak memory=       173 mb
 sweep: dc dc2364 begin, #sweeps= 111 cpu clock=  2.83E+01
 sweep: dc dc2364 end,  cpu clock=  2.83E+01 peak memory=       173 mb
 sweep: dc dc2365 begin, #sweeps= 111 cpu clock=  2.83E+01
 sweep: dc dc2365 end,  cpu clock=  2.83E+01 peak memory=       173 mb
 sweep: dc dc2366 begin, #sweeps= 111 cpu clock=  2.84E+01
 sweep: dc dc2366 end,  cpu clock=  2.84E+01 peak memory=       173 mb
 sweep: dc dc2367 begin, #sweeps= 111 cpu clock=  2.84E+01
 sweep: dc dc2367 end,  cpu clock=  2.84E+01 peak memory=       173 mb
 sweep: dc dc2368 begin, #sweeps= 111 cpu clock=  2.84E+01
 sweep: dc dc2368 end,  cpu clock=  2.84E+01 peak memory=       173 mb
 sweep: dc dc2369 begin, #sweeps= 111 cpu clock=  2.84E+01
 sweep: dc dc2369 end,  cpu clock=  2.84E+01 peak memory=       173 mb
 sweep: dc dc2370 begin, #sweeps= 111 cpu clock=  2.84E+01
 sweep: dc dc2370 end,  cpu clock=  2.84E+01 peak memory=       173 mb
 sweep: dc dc2371 begin, #sweeps= 111 cpu clock=  2.84E+01
 sweep: dc dc2371 end,  cpu clock=  2.84E+01 peak memory=       173 mb
 sweep: dc dc2372 begin, #sweeps= 111 cpu clock=  2.84E+01
 sweep: dc dc2372 end,  cpu clock=  2.84E+01 peak memory=       173 mb
 sweep: dc dc2373 begin, #sweeps= 111 cpu clock=  2.84E+01
 sweep: dc dc2373 end,  cpu clock=  2.84E+01 peak memory=       173 mb
 sweep: dc dc2374 begin, #sweeps= 111 cpu clock=  2.84E+01
 sweep: dc dc2374 end,  cpu clock=  2.84E+01 peak memory=       173 mb
 sweep: dc dc2375 begin, #sweeps= 111 cpu clock=  2.84E+01
 sweep: dc dc2375 end,  cpu clock=  2.84E+01 peak memory=       173 mb
 sweep: dc dc2376 begin, #sweeps= 111 cpu clock=  2.84E+01
 sweep: dc dc2376 end,  cpu clock=  2.84E+01 peak memory=       173 mb
 sweep: dc dc2377 begin, #sweeps= 111 cpu clock=  2.84E+01
 sweep: dc dc2377 end,  cpu clock=  2.84E+01 peak memory=       173 mb
 sweep: dc dc2378 begin, #sweeps= 111 cpu clock=  2.84E+01
 sweep: dc dc2378 end,  cpu clock=  2.84E+01 peak memory=       173 mb
 sweep: dc dc2379 begin, #sweeps= 111 cpu clock=  2.84E+01
 sweep: dc dc2379 end,  cpu clock=  2.84E+01 peak memory=       173 mb
 sweep: dc dc2380 begin, #sweeps= 111 cpu clock=  2.84E+01
 sweep: dc dc2380 end,  cpu clock=  2.84E+01 peak memory=       173 mb
 sweep: dc dc2381 begin, #sweeps= 111 cpu clock=  2.84E+01
 sweep: dc dc2381 end,  cpu clock=  2.84E+01 peak memory=       173 mb
 sweep: dc dc2382 begin, #sweeps= 111 cpu clock=  2.84E+01
 sweep: dc dc2382 end,  cpu clock=  2.84E+01 peak memory=       173 mb
 sweep: dc dc2383 begin, #sweeps= 111 cpu clock=  2.84E+01
 sweep: dc dc2383 end,  cpu clock=  2.84E+01 peak memory=       173 mb
 sweep: dc dc2384 begin, #sweeps= 111 cpu clock=  2.84E+01
 sweep: dc dc2384 end,  cpu clock=  2.84E+01 peak memory=       173 mb
 sweep: dc dc2385 begin, #sweeps= 111 cpu clock=  2.84E+01
 sweep: dc dc2385 end,  cpu clock=  2.84E+01 peak memory=       173 mb
 sweep: dc dc2386 begin, #sweeps= 111 cpu clock=  2.84E+01
 sweep: dc dc2386 end,  cpu clock=  2.84E+01 peak memory=       173 mb
 sweep: dc dc2387 begin, #sweeps= 111 cpu clock=  2.84E+01
 sweep: dc dc2387 end,  cpu clock=  2.84E+01 peak memory=       173 mb
 sweep: dc dc2388 begin, #sweeps= 111 cpu clock=  2.84E+01
 sweep: dc dc2388 end,  cpu clock=  2.84E+01 peak memory=       173 mb
 sweep: dc dc2389 begin, #sweeps= 111 cpu clock=  2.84E+01
 sweep: dc dc2389 end,  cpu clock=  2.84E+01 peak memory=       173 mb
 sweep: dc dc2390 begin, #sweeps= 111 cpu clock=  2.84E+01
 sweep: dc dc2390 end,  cpu clock=  2.84E+01 peak memory=       173 mb
 sweep: dc dc2391 begin, #sweeps= 111 cpu clock=  2.84E+01
 sweep: dc dc2391 end,  cpu clock=  2.85E+01 peak memory=       173 mb
 sweep: dc dc2392 begin, #sweeps= 111 cpu clock=  2.85E+01
 sweep: dc dc2392 end,  cpu clock=  2.85E+01 peak memory=       173 mb
 sweep: dc dc2393 begin, #sweeps= 111 cpu clock=  2.85E+01
 sweep: dc dc2393 end,  cpu clock=  2.85E+01 peak memory=       173 mb
 sweep: dc dc2394 begin, #sweeps= 111 cpu clock=  2.85E+01
 sweep: dc dc2394 end,  cpu clock=  2.85E+01 peak memory=       173 mb
 sweep: dc dc2395 begin, #sweeps= 111 cpu clock=  2.85E+01
 sweep: dc dc2395 end,  cpu clock=  2.85E+01 peak memory=       173 mb
 sweep: dc dc2396 begin, #sweeps= 111 cpu clock=  2.85E+01
 sweep: dc dc2396 end,  cpu clock=  2.85E+01 peak memory=       173 mb
 sweep: dc dc2397 begin, #sweeps= 111 cpu clock=  2.85E+01
 sweep: dc dc2397 end,  cpu clock=  2.85E+01 peak memory=       173 mb
 sweep: dc dc2398 begin, #sweeps= 111 cpu clock=  2.85E+01
 sweep: dc dc2398 end,  cpu clock=  2.85E+01 peak memory=       173 mb
 sweep: dc dc2399 begin, #sweeps= 111 cpu clock=  2.85E+01
 sweep: dc dc2399 end,  cpu clock=  2.85E+01 peak memory=       173 mb
 sweep: dc dc2400 begin, #sweeps= 111 cpu clock=  2.85E+01
 sweep: dc dc2400 end,  cpu clock=  2.85E+01 peak memory=       173 mb
 sweep: dc dc2401 begin, #sweeps= 111 cpu clock=  2.85E+01
 sweep: dc dc2401 end,  cpu clock=  2.85E+01 peak memory=       173 mb
 sweep: dc dc2402 begin, #sweeps= 111 cpu clock=  2.85E+01
 sweep: dc dc2402 end,  cpu clock=  2.85E+01 peak memory=       173 mb
 sweep: dc dc2403 begin, #sweeps= 111 cpu clock=  2.85E+01
 sweep: dc dc2403 end,  cpu clock=  2.85E+01 peak memory=       173 mb
 sweep: dc dc2404 begin, #sweeps= 111 cpu clock=  2.85E+01
 sweep: dc dc2404 end,  cpu clock=  2.85E+01 peak memory=       173 mb
 sweep: dc dc2405 begin, #sweeps= 111 cpu clock=  2.85E+01
 sweep: dc dc2405 end,  cpu clock=  2.85E+01 peak memory=       173 mb
 sweep: dc dc2406 begin, #sweeps= 111 cpu clock=  2.85E+01
 sweep: dc dc2406 end,  cpu clock=  2.85E+01 peak memory=       173 mb
 sweep: dc dc2407 begin, #sweeps= 111 cpu clock=  2.85E+01
 sweep: dc dc2407 end,  cpu clock=  2.85E+01 peak memory=       173 mb
 sweep: dc dc2408 begin, #sweeps= 111 cpu clock=  2.85E+01
 sweep: dc dc2408 end,  cpu clock=  2.85E+01 peak memory=       173 mb
 sweep: dc dc2409 begin, #sweeps= 111 cpu clock=  2.85E+01
 sweep: dc dc2409 end,  cpu clock=  2.85E+01 peak memory=       173 mb
 sweep: dc dc2410 begin, #sweeps= 111 cpu clock=  2.85E+01
 sweep: dc dc2410 end,  cpu clock=  2.85E+01 peak memory=       173 mb
 sweep: dc dc2411 begin, #sweeps= 111 cpu clock=  2.85E+01
 sweep: dc dc2411 end,  cpu clock=  2.85E+01 peak memory=       173 mb
 sweep: dc dc2412 begin, #sweeps= 111 cpu clock=  2.85E+01
 sweep: dc dc2412 end,  cpu clock=  2.85E+01 peak memory=       173 mb
 sweep: dc dc2413 begin, #sweeps= 111 cpu clock=  2.85E+01
 sweep: dc dc2413 end,  cpu clock=  2.85E+01 peak memory=       173 mb
 sweep: dc dc2414 begin, #sweeps= 111 cpu clock=  2.85E+01
 sweep: dc dc2414 end,  cpu clock=  2.85E+01 peak memory=       173 mb
 sweep: dc dc2415 begin, #sweeps= 111 cpu clock=  2.85E+01
 sweep: dc dc2415 end,  cpu clock=  2.85E+01 peak memory=       173 mb
 sweep: dc dc2416 begin, #sweeps= 111 cpu clock=  2.85E+01
 sweep: dc dc2416 end,  cpu clock=  2.86E+01 peak memory=       173 mb
 sweep: dc dc2417 begin, #sweeps= 111 cpu clock=  2.86E+01
 sweep: dc dc2417 end,  cpu clock=  2.86E+01 peak memory=       173 mb
 sweep: dc dc2418 begin, #sweeps= 111 cpu clock=  2.86E+01
 sweep: dc dc2418 end,  cpu clock=  2.86E+01 peak memory=       173 mb
 sweep: dc dc2419 begin, #sweeps= 111 cpu clock=  2.86E+01
 sweep: dc dc2419 end,  cpu clock=  2.86E+01 peak memory=       173 mb
 sweep: dc dc2420 begin, #sweeps= 111 cpu clock=  2.86E+01
 sweep: dc dc2420 end,  cpu clock=  2.86E+01 peak memory=       173 mb
 sweep: dc dc2421 begin, #sweeps= 111 cpu clock=  2.86E+01
 sweep: dc dc2421 end,  cpu clock=  2.86E+01 peak memory=       173 mb
 sweep: dc dc2422 begin, #sweeps= 111 cpu clock=  2.86E+01
 sweep: dc dc2422 end,  cpu clock=  2.86E+01 peak memory=       173 mb
 sweep: dc dc2423 begin, #sweeps= 111 cpu clock=  2.86E+01
 sweep: dc dc2423 end,  cpu clock=  2.86E+01 peak memory=       173 mb
 sweep: dc dc2424 begin, #sweeps= 111 cpu clock=  2.86E+01
 sweep: dc dc2424 end,  cpu clock=  2.86E+01 peak memory=       173 mb
 sweep: dc dc2425 begin, #sweeps= 111 cpu clock=  2.86E+01
 sweep: dc dc2425 end,  cpu clock=  2.86E+01 peak memory=       173 mb
 sweep: dc dc2426 begin, #sweeps= 111 cpu clock=  2.86E+01
 sweep: dc dc2426 end,  cpu clock=  2.86E+01 peak memory=       173 mb
 sweep: dc dc2427 begin, #sweeps= 111 cpu clock=  2.86E+01
 sweep: dc dc2427 end,  cpu clock=  2.86E+01 peak memory=       173 mb
 sweep: dc dc2428 begin, #sweeps= 111 cpu clock=  2.86E+01
 sweep: dc dc2428 end,  cpu clock=  2.86E+01 peak memory=       173 mb
 sweep: dc dc2429 begin, #sweeps= 111 cpu clock=  2.86E+01
 sweep: dc dc2429 end,  cpu clock=  2.86E+01 peak memory=       173 mb
 sweep: dc dc2430 begin, #sweeps= 111 cpu clock=  2.86E+01
 sweep: dc dc2430 end,  cpu clock=  2.86E+01 peak memory=       173 mb
 sweep: dc dc2431 begin, #sweeps= 111 cpu clock=  2.86E+01
 sweep: dc dc2431 end,  cpu clock=  2.86E+01 peak memory=       173 mb
 sweep: dc dc2432 begin, #sweeps= 111 cpu clock=  2.86E+01
 sweep: dc dc2432 end,  cpu clock=  2.86E+01 peak memory=       173 mb
 sweep: dc dc2433 begin, #sweeps= 111 cpu clock=  2.86E+01
 sweep: dc dc2433 end,  cpu clock=  2.86E+01 peak memory=       173 mb
 sweep: dc dc2434 begin, #sweeps= 111 cpu clock=  2.86E+01
 sweep: dc dc2434 end,  cpu clock=  2.86E+01 peak memory=       173 mb
 sweep: dc dc2435 begin, #sweeps= 111 cpu clock=  2.86E+01
 sweep: dc dc2435 end,  cpu clock=  2.86E+01 peak memory=       173 mb
 sweep: dc dc2436 begin, #sweeps= 111 cpu clock=  2.86E+01
 sweep: dc dc2436 end,  cpu clock=  2.86E+01 peak memory=       173 mb
 sweep: dc dc2437 begin, #sweeps= 111 cpu clock=  2.86E+01
 sweep: dc dc2437 end,  cpu clock=  2.86E+01 peak memory=       173 mb
 sweep: dc dc2438 begin, #sweeps= 111 cpu clock=  2.86E+01
 sweep: dc dc2438 end,  cpu clock=  2.86E+01 peak memory=       173 mb
 sweep: dc dc2439 begin, #sweeps= 111 cpu clock=  2.86E+01
 sweep: dc dc2439 end,  cpu clock=  2.86E+01 peak memory=       173 mb
 sweep: dc dc2440 begin, #sweeps= 111 cpu clock=  2.86E+01
 sweep: dc dc2440 end,  cpu clock=  2.86E+01 peak memory=       173 mb
 sweep: dc dc2441 begin, #sweeps= 111 cpu clock=  2.86E+01
 sweep: dc dc2441 end,  cpu clock=  2.86E+01 peak memory=       173 mb
 sweep: dc dc2442 begin, #sweeps= 111 cpu clock=  2.87E+01
 sweep: dc dc2442 end,  cpu clock=  2.87E+01 peak memory=       173 mb
 sweep: dc dc2443 begin, #sweeps= 111 cpu clock=  2.87E+01
 sweep: dc dc2443 end,  cpu clock=  2.87E+01 peak memory=       173 mb
 sweep: dc dc2444 begin, #sweeps= 111 cpu clock=  2.87E+01
 sweep: dc dc2444 end,  cpu clock=  2.87E+01 peak memory=       173 mb
 sweep: dc dc2445 begin, #sweeps= 111 cpu clock=  2.87E+01
 sweep: dc dc2445 end,  cpu clock=  2.87E+01 peak memory=       173 mb
 sweep: dc dc2446 begin, #sweeps= 111 cpu clock=  2.87E+01
 sweep: dc dc2446 end,  cpu clock=  2.87E+01 peak memory=       173 mb
 sweep: dc dc2447 begin, #sweeps= 111 cpu clock=  2.87E+01
 sweep: dc dc2447 end,  cpu clock=  2.87E+01 peak memory=       173 mb
 sweep: dc dc2448 begin, #sweeps= 111 cpu clock=  2.87E+01
 sweep: dc dc2448 end,  cpu clock=  2.87E+01 peak memory=       173 mb
 sweep: dc dc2449 begin, #sweeps= 111 cpu clock=  2.87E+01
 sweep: dc dc2449 end,  cpu clock=  2.87E+01 peak memory=       173 mb
 sweep: dc dc2450 begin, #sweeps= 111 cpu clock=  2.87E+01
 sweep: dc dc2450 end,  cpu clock=  2.87E+01 peak memory=       173 mb
 sweep: dc dc2451 begin, #sweeps= 111 cpu clock=  2.87E+01
 sweep: dc dc2451 end,  cpu clock=  2.87E+01 peak memory=       173 mb
 sweep: dc dc2452 begin, #sweeps= 111 cpu clock=  2.87E+01
 sweep: dc dc2452 end,  cpu clock=  2.87E+01 peak memory=       173 mb
 sweep: dc dc2453 begin, #sweeps= 111 cpu clock=  2.87E+01
 sweep: dc dc2453 end,  cpu clock=  2.87E+01 peak memory=       173 mb
 sweep: dc dc2454 begin, #sweeps= 111 cpu clock=  2.87E+01
 sweep: dc dc2454 end,  cpu clock=  2.87E+01 peak memory=       173 mb
 sweep: dc dc2455 begin, #sweeps= 111 cpu clock=  2.87E+01
 sweep: dc dc2455 end,  cpu clock=  2.87E+01 peak memory=       173 mb
 sweep: dc dc2456 begin, #sweeps= 111 cpu clock=  2.87E+01
 sweep: dc dc2456 end,  cpu clock=  2.87E+01 peak memory=       173 mb
 sweep: dc dc2457 begin, #sweeps= 111 cpu clock=  2.87E+01
 sweep: dc dc2457 end,  cpu clock=  2.87E+01 peak memory=       173 mb
 sweep: dc dc2458 begin, #sweeps= 111 cpu clock=  2.87E+01
 sweep: dc dc2458 end,  cpu clock=  2.87E+01 peak memory=       173 mb
 sweep: dc dc2459 begin, #sweeps= 111 cpu clock=  2.87E+01
 sweep: dc dc2459 end,  cpu clock=  2.87E+01 peak memory=       173 mb
 sweep: dc dc2460 begin, #sweeps= 111 cpu clock=  2.87E+01
 sweep: dc dc2460 end,  cpu clock=  2.87E+01 peak memory=       173 mb
 sweep: dc dc2461 begin, #sweeps= 111 cpu clock=  2.87E+01
 sweep: dc dc2461 end,  cpu clock=  2.87E+01 peak memory=       173 mb
 sweep: dc dc2462 begin, #sweeps= 111 cpu clock=  2.87E+01
 sweep: dc dc2462 end,  cpu clock=  2.87E+01 peak memory=       173 mb
 sweep: dc dc2463 begin, #sweeps= 111 cpu clock=  2.87E+01
 sweep: dc dc2463 end,  cpu clock=  2.87E+01 peak memory=       173 mb
 sweep: dc dc2464 begin, #sweeps= 111 cpu clock=  2.87E+01
 sweep: dc dc2464 end,  cpu clock=  2.87E+01 peak memory=       173 mb
 sweep: dc dc2465 begin, #sweeps= 111 cpu clock=  2.87E+01
 sweep: dc dc2465 end,  cpu clock=  2.87E+01 peak memory=       173 mb
 sweep: dc dc2466 begin, #sweeps= 111 cpu clock=  2.87E+01
 sweep: dc dc2466 end,  cpu clock=  2.87E+01 peak memory=       173 mb
 sweep: dc dc2467 begin, #sweeps= 111 cpu clock=  2.87E+01
 sweep: dc dc2467 end,  cpu clock=  2.88E+01 peak memory=       173 mb
 sweep: dc dc2468 begin, #sweeps= 111 cpu clock=  2.88E+01
 sweep: dc dc2468 end,  cpu clock=  2.88E+01 peak memory=       173 mb
 sweep: dc dc2469 begin, #sweeps= 111 cpu clock=  2.88E+01
 sweep: dc dc2469 end,  cpu clock=  2.88E+01 peak memory=       173 mb
 sweep: dc dc2470 begin, #sweeps= 111 cpu clock=  2.88E+01
 sweep: dc dc2470 end,  cpu clock=  2.88E+01 peak memory=       173 mb
 sweep: dc dc2471 begin, #sweeps= 111 cpu clock=  2.88E+01
 sweep: dc dc2471 end,  cpu clock=  2.88E+01 peak memory=       173 mb
 sweep: dc dc2472 begin, #sweeps= 111 cpu clock=  2.88E+01
 sweep: dc dc2472 end,  cpu clock=  2.88E+01 peak memory=       173 mb
 sweep: dc dc2473 begin, #sweeps= 111 cpu clock=  2.88E+01
 sweep: dc dc2473 end,  cpu clock=  2.88E+01 peak memory=       173 mb
 sweep: dc dc2474 begin, #sweeps= 111 cpu clock=  2.88E+01
 sweep: dc dc2474 end,  cpu clock=  2.88E+01 peak memory=       173 mb
 sweep: dc dc2475 begin, #sweeps= 111 cpu clock=  2.88E+01
 sweep: dc dc2475 end,  cpu clock=  2.88E+01 peak memory=       173 mb
 sweep: dc dc2476 begin, #sweeps= 111 cpu clock=  2.88E+01
 sweep: dc dc2476 end,  cpu clock=  2.88E+01 peak memory=       173 mb
 sweep: dc dc2477 begin, #sweeps= 111 cpu clock=  2.88E+01
 sweep: dc dc2477 end,  cpu clock=  2.88E+01 peak memory=       173 mb
 sweep: dc dc2478 begin, #sweeps= 111 cpu clock=  2.88E+01
 sweep: dc dc2478 end,  cpu clock=  2.88E+01 peak memory=       173 mb
 sweep: dc dc2479 begin, #sweeps= 111 cpu clock=  2.88E+01
 sweep: dc dc2479 end,  cpu clock=  2.88E+01 peak memory=       173 mb
 sweep: dc dc2480 begin, #sweeps= 111 cpu clock=  2.88E+01
 sweep: dc dc2480 end,  cpu clock=  2.88E+01 peak memory=       173 mb
 sweep: dc dc2481 begin, #sweeps= 111 cpu clock=  2.88E+01
 sweep: dc dc2481 end,  cpu clock=  2.88E+01 peak memory=       173 mb
 sweep: dc dc2482 begin, #sweeps= 111 cpu clock=  2.88E+01
 sweep: dc dc2482 end,  cpu clock=  2.88E+01 peak memory=       173 mb
 sweep: dc dc2483 begin, #sweeps= 111 cpu clock=  2.88E+01
 sweep: dc dc2483 end,  cpu clock=  2.88E+01 peak memory=       173 mb
 sweep: dc dc2484 begin, #sweeps= 111 cpu clock=  2.88E+01
 sweep: dc dc2484 end,  cpu clock=  2.88E+01 peak memory=       173 mb
 sweep: dc dc2485 begin, #sweeps= 111 cpu clock=  2.88E+01
 sweep: dc dc2485 end,  cpu clock=  2.88E+01 peak memory=       173 mb
 sweep: dc dc2486 begin, #sweeps= 111 cpu clock=  2.88E+01
 sweep: dc dc2486 end,  cpu clock=  2.88E+01 peak memory=       173 mb
 sweep: dc dc2487 begin, #sweeps= 111 cpu clock=  2.88E+01
 sweep: dc dc2487 end,  cpu clock=  2.88E+01 peak memory=       173 mb
 sweep: dc dc2488 begin, #sweeps= 111 cpu clock=  2.88E+01
 sweep: dc dc2488 end,  cpu clock=  2.88E+01 peak memory=       173 mb
 sweep: dc dc2489 begin, #sweeps= 111 cpu clock=  2.88E+01
 sweep: dc dc2489 end,  cpu clock=  2.88E+01 peak memory=       173 mb
 sweep: dc dc2490 begin, #sweeps= 111 cpu clock=  2.88E+01
 sweep: dc dc2490 end,  cpu clock=  2.88E+01 peak memory=       173 mb
 sweep: dc dc2491 begin, #sweeps= 111 cpu clock=  2.88E+01
 sweep: dc dc2491 end,  cpu clock=  2.88E+01 peak memory=       173 mb
 sweep: dc dc2492 begin, #sweeps= 111 cpu clock=  2.88E+01
 sweep: dc dc2492 end,  cpu clock=  2.89E+01 peak memory=       173 mb
 sweep: dc dc2493 begin, #sweeps= 111 cpu clock=  2.89E+01
 sweep: dc dc2493 end,  cpu clock=  2.89E+01 peak memory=       173 mb
 sweep: dc dc2494 begin, #sweeps= 111 cpu clock=  2.89E+01
 sweep: dc dc2494 end,  cpu clock=  2.89E+01 peak memory=       173 mb
 sweep: dc dc2495 begin, #sweeps= 111 cpu clock=  2.89E+01
 sweep: dc dc2495 end,  cpu clock=  2.89E+01 peak memory=       173 mb
 sweep: dc dc2496 begin, #sweeps= 111 cpu clock=  2.89E+01
 sweep: dc dc2496 end,  cpu clock=  2.89E+01 peak memory=       173 mb
 sweep: dc dc2497 begin, #sweeps= 111 cpu clock=  2.89E+01
 sweep: dc dc2497 end,  cpu clock=  2.89E+01 peak memory=       173 mb
 sweep: dc dc2498 begin, #sweeps= 111 cpu clock=  2.89E+01
 sweep: dc dc2498 end,  cpu clock=  2.89E+01 peak memory=       173 mb
 sweep: dc dc2499 begin, #sweeps= 111 cpu clock=  2.89E+01
 sweep: dc dc2499 end,  cpu clock=  2.89E+01 peak memory=       173 mb
 sweep: dc dc2500 begin, #sweeps= 111 cpu clock=  2.89E+01
 sweep: dc dc2500 end,  cpu clock=  2.89E+01 peak memory=       173 mb
 sweep: monte_carlo     monte_carlo     1 end
>info:         ***** hspice job concluded
 lic: Release hspice token(s)
