$DATA1 SOURCE='HSPICE' VERSION='I-2013.12-SP1 64-BIT'
.TITLE ' '
 ion_nmos         ion_pmos         temper           alter#            
  6.806e-05       -7.937e-05        1.250e+02       2                 
