$DATA1 SOURCE='HSPICE' VERSION='I-2013.12-SP1 64-BIT'
.TITLE 'tsts'
 id_nmos          id_pmos          ion_nmos         ion_pmos          
 temper           alter#            
  1.040e-04       -1.297e-04        1.155e+03        7.204e+02        
  2.500e+01       31                
