$DATA1 SOURCE='HSPICE' VERSION='I-2013.12-SP1 64-BIT'
.TITLE 'sfff'
 id_nmos          id_pmos          ion_nmos         ion_pmos          
 temper           alter#            
  9.626e-05       -1.236e-04        1.069e+03        6.867e+02        
  1.250e+02       27                
