$DATA1 SOURCE='HSPICE' VERSION='I-2013.12-SP1 64-BIT'
.TITLE 'ffts'
 id_nmos          id_pmos          ion_nmos         ion_pmos          
 temper           alter#            
  1.716e-04       -2.397e-04        1.906e+03        1.331e+03        
 -4.500e+01       76                
