$DATA1 SOURCE='HSPICE' VERSION='I-2013.12-SP1 64-BIT'
.TITLE 'fttt'
 id_nmos          id_pmos          ion_nmos         ion_pmos          
 temper           alter#            
  1.510e-04       -2.164e-04        1.677e+03        1.202e+03        
 -4.500e+01       68                
