$DATA1 SOURCE='HSPICE' VERSION='I-2013.12-SP1 64-BIT'
.TITLE 'fsst'
 id_nmos          id_pmos          ion_nmos         ion_pmos          
 temper           alter#            
  1.237e-04       -1.835e-04        1.374e+03        1.019e+03        
 -4.500e+01       56                
