$DATA1 SOURCE='HSPICE' VERSION='I-2013.12-SP1 64-BIT'
.TITLE 'stff'
 id_nmos          id_pmos          ion_nmos         ion_pmos          
 temper           alter#            
  8.533e-05       -1.086e-04        9.480e+02        6.033e+02        
  1.250e+02       18                
