$DATA1 SOURCE='HSPICE' VERSION='I-2013.12-SP1 64-BIT'
.TITLE 'ttff'
 id_nmos          id_pmos          ion_nmos         ion_pmos          
 temper           alter#            
  1.285e-04       -1.741e-04        1.428e+03        9.670e+02        
  2.500e+01       45                
