$DATA1 SOURCE='HSPICE' VERSION='I-2013.12-SP1 64-BIT'
.TITLE 'ffff'
 id_nmos          id_pmos          ion_nmos         ion_pmos          
 temper           alter#            
  1.782e-04       -2.612e-04        1.980e+03        1.451e+03        
 -4.500e+01       81                
