$DATA1 SOURCE='HSPICE' VERSION='I-2013.12-SP1 64-BIT'
.TITLE 'ssff'
 id_nmos          id_pmos          ion_nmos         ion_pmos          
 temper           alter#            
  7.407e-05       -9.340e-05        8.230e+02        5.188e+02        
  1.250e+02       9                 
