$DATA1 SOURCE='HSPICE' VERSION='I-2013.12-SP1 64-BIT'
.TITLE 'tsss'
 id_nmos          id_pmos          ion_nmos         ion_pmos          
 temper           alter#            
  9.671e-05       -1.297e-04        1.074e+03        7.204e+02        
  2.500e+01       28                
