$DATA1 SOURCE='HSPICE' VERSION='I-2013.12-SP1 64-BIT'
.TITLE 'tsff'
 id_nmos          id_pmos          ion_nmos         ion_pmos          
 temper           alter#            
  1.108e-04       -1.480e-04        1.231e+03        8.224e+02        
  2.500e+01       36                
