$DATA1 SOURCE='HSPICE' VERSION='I-2013.12-SP1 64-BIT'
.TITLE 'ttts'
 id_nmos          id_pmos          ion_nmos         ion_pmos          
 temper           alter#            
  1.216e-04       -1.547e-04        1.350e+03        8.596e+02        
  2.500e+01       40                
