$DATA1 SOURCE='HSPICE' VERSION='I-2013.12-SP1 64-BIT'
.TITLE 'ffsf'
 id_nmos          id_pmos          ion_nmos         ion_pmos          
 temper           alter#            
  1.647e-04       -2.612e-04        1.829e+03        1.451e+03        
 -4.500e+01       75                
