***** HSPICE -- I-2013.12-SP1 64-BIT (Feb 25 2014) RHEL64 ******
 Input File: stimulus.sp
 lic:
 lic: FLEXlm: v10.9.8
 lic: USER:   2015104069           HOSTNAME: vlsi-dist.khu.ac.kr
 lic: HOSTID: 382c4ac7d475         PID:      38986
 lic: Using FLEXlm license file:
 lic: 27020@163.180.118.27
 lic: Checkout 1 hspice
 lic: License/Maintenance for hspice will expire on 30-jun-2020/2018.09
 lic: 1(in_use)/7(total) FLOATING license(s) on SERVER 27020@163.180.118.27
 lic:
 init: begin read circuit files,  cpu clock=  9.62E-01
       option search = /Tools/Synopsys/Hspice/hspice/parts/ad
       option search = /Tools/Synopsys/Hspice/hspice/parts/ad
       option search = /Tools/Synopsys/Hspice/hspice/parts/behave
       option search = /Tools/Synopsys/Hspice/hspice/parts/bjt
       option search = /Tools/Synopsys/Hspice/hspice/parts/burr_brn
       option search = /Tools/Synopsys/Hspice/hspice/parts/comlinear
       option search = /Tools/Synopsys/Hspice/hspice/parts/dio
       option search = /Tools/Synopsys/Hspice/hspice/parts/fet
       option search = /Tools/Synopsys/Hspice/hspice/parts/lin_tech
       option search = /Tools/Synopsys/Hspice/hspice/parts/pci
       option search = /Tools/Synopsys/Hspice/hspice/parts/signet
       option search = /Tools/Synopsys/Hspice/hspice/parts/ti
       option search = /Tools/Synopsys/Hspice/hspice/parts/tline
       option search = /Tools/Synopsys/Hspice/hspice/parts/xilinx
       option runlvl
       option delmax =    1.000E-09
       option artist =     2.00
       option ingold =     2.00
       option parhier = local
       option psf =     2.00
 init: end read circuit files,  cpu clock=  9.65E-01 peak memory=       172 mb
 init: begin check errors,  cpu clock=  9.65E-01
 init: end check errors,  cpu clock=  9.69E-01 peak memory=       173 mb
 init: begin setup matrix, pivot=     0 cpu clock=  9.69E-01
       establish matrix -- done,  cpu clock=  9.70E-01 peak memory=       173 mb
       re-order matrix -- done,  cpu clock=  9.70E-01 peak memory=       173 mb
 init: end setup matrix,  cpu clock=  9.70E-01 peak memory=       173 mb
 dcop: begin dcop,  cpu clock=  9.71E-01
 dcop: end dcop,  cpu clock=  9.72E-01 peak memory=       173 mb  tot_iter=      10
 sweep: tran tran0    begin, stop_t=  2.00E-08 #sweeps= 201 cpu clock=  9.73E-01
 tran: time= 2.2052E-09 tot_iter=      10 conv_iter=       5 cpu clock= 9.73E-01
 tran: time= 4.2052E-09 tot_iter=      14 conv_iter=       7 cpu clock= 9.73E-01
 tran: time= 6.2052E-09 tot_iter=      18 conv_iter=       9 cpu clock= 9.73E-01
 tran: time= 8.2052E-09 tot_iter=      22 conv_iter=      11 cpu clock= 9.73E-01
 tran: time= 1.0205E-08 tot_iter=      26 conv_iter=      13 cpu clock= 9.73E-01
 tran: time= 1.2205E-08 tot_iter=      30 conv_iter=      15 cpu clock= 9.74E-01
 tran: time= 1.4205E-08 tot_iter=      34 conv_iter=      17 cpu clock= 9.74E-01
 tran: time= 1.6205E-08 tot_iter=      38 conv_iter=      19 cpu clock= 9.74E-01
 tran: time= 1.8205E-08 tot_iter=      42 conv_iter=      21 cpu clock= 9.74E-01
 tran: time= 2.0000E-08 tot_iter=      46 conv_iter=      23 cpu clock= 9.74E-01
 sweep: tran tran0    end,  cpu clock=  9.74E-01 peak memory=       173 mb
>info:         ***** hspice job concluded
 init: begin read circuit files,  cpu clock=  9.79E-01
       option search = /Tools/Synopsys/Hspice/hspice/parts/ad
       option search = /Tools/Synopsys/Hspice/hspice/parts/ad
       option search = /Tools/Synopsys/Hspice/hspice/parts/behave
       option search = /Tools/Synopsys/Hspice/hspice/parts/bjt
       option search = /Tools/Synopsys/Hspice/hspice/parts/burr_brn
       option search = /Tools/Synopsys/Hspice/hspice/parts/comlinear
       option search = /Tools/Synopsys/Hspice/hspice/parts/dio
       option search = /Tools/Synopsys/Hspice/hspice/parts/fet
       option search = /Tools/Synopsys/Hspice/hspice/parts/lin_tech
       option search = /Tools/Synopsys/Hspice/hspice/parts/pci
       option search = /Tools/Synopsys/Hspice/hspice/parts/signet
       option search = /Tools/Synopsys/Hspice/hspice/parts/ti
       option search = /Tools/Synopsys/Hspice/hspice/parts/tline
       option search = /Tools/Synopsys/Hspice/hspice/parts/xilinx
       option runlvl
       option delmax =    1.000E-09
       option artist =     2.00
       option ingold =     2.00
       option parhier = local
       option psf =     2.00
 init: end read circuit files,  cpu clock=  9.81E-01 peak memory=       173 mb
 init: begin check errors,  cpu clock=  9.81E-01
 init: end check errors,  cpu clock=  9.83E-01 peak memory=       173 mb
 init: begin setup matrix, pivot=     0 cpu clock=  9.83E-01
       establish matrix -- done,  cpu clock=  9.84E-01 peak memory=       173 mb
       re-order matrix -- done,  cpu clock=  9.84E-01 peak memory=       173 mb
 init: end setup matrix,  cpu clock=  9.84E-01 peak memory=       173 mb
 dcop: begin dcop,  cpu clock=  9.85E-01
 dcop: end dcop,  cpu clock=  9.86E-01 peak memory=       173 mb  tot_iter=      10
 sweep: tran tran0    begin, stop_t=  2.00E-08 #sweeps= 201 cpu clock=  9.86E-01
 tran: time= 2.2052E-09 tot_iter=      10 conv_iter=       5 cpu clock= 9.86E-01
 tran: time= 4.2052E-09 tot_iter=      14 conv_iter=       7 cpu clock= 9.87E-01
 tran: time= 6.2052E-09 tot_iter=      18 conv_iter=       9 cpu clock= 9.87E-01
 tran: time= 8.2052E-09 tot_iter=      22 conv_iter=      11 cpu clock= 9.87E-01
 tran: time= 1.0000E-08 tot_iter=      26 conv_iter=      13 cpu clock= 9.87E-01
 tran: time= 1.2134E-08 tot_iter=     103 conv_iter=      43 cpu clock= 9.92E-01
 tran: time= 1.4134E-08 tot_iter=     108 conv_iter=      45 cpu clock= 9.92E-01
 tran: time= 1.6134E-08 tot_iter=     112 conv_iter=      47 cpu clock= 9.93E-01
 tran: time= 1.8134E-08 tot_iter=     116 conv_iter=      49 cpu clock= 9.93E-01
 tran: time= 2.0000E-08 tot_iter=     120 conv_iter=      51 cpu clock= 9.93E-01
 sweep: tran tran0    end,  cpu clock=  9.93E-01 peak memory=       173 mb
>info:         ***** hspice job concluded
 init: begin read circuit files,  cpu clock=  9.97E-01
       option search = /Tools/Synopsys/Hspice/hspice/parts/ad
       option search = /Tools/Synopsys/Hspice/hspice/parts/ad
       option search = /Tools/Synopsys/Hspice/hspice/parts/behave
       option search = /Tools/Synopsys/Hspice/hspice/parts/bjt
       option search = /Tools/Synopsys/Hspice/hspice/parts/burr_brn
       option search = /Tools/Synopsys/Hspice/hspice/parts/comlinear
       option search = /Tools/Synopsys/Hspice/hspice/parts/dio
       option search = /Tools/Synopsys/Hspice/hspice/parts/fet
       option search = /Tools/Synopsys/Hspice/hspice/parts/lin_tech
       option search = /Tools/Synopsys/Hspice/hspice/parts/pci
       option search = /Tools/Synopsys/Hspice/hspice/parts/signet
       option search = /Tools/Synopsys/Hspice/hspice/parts/ti
       option search = /Tools/Synopsys/Hspice/hspice/parts/tline
       option search = /Tools/Synopsys/Hspice/hspice/parts/xilinx
       option runlvl
       option delmax =    1.000E-09
       option artist =     2.00
       option ingold =     2.00
       option parhier = local
       option psf =     2.00
 init: end read circuit files,  cpu clock=  9.99E-01 peak memory=       173 mb
 init: begin check errors,  cpu clock=  9.99E-01
 init: end check errors,  cpu clock=  1.00E+00 peak memory=       173 mb
 init: begin setup matrix, pivot=     0 cpu clock=  1.00E+00
       establish matrix -- done,  cpu clock=  1.00E+00 peak memory=       173 mb
       re-order matrix -- done,  cpu clock=  1.00E+00 peak memory=       173 mb
 init: end setup matrix,  cpu clock=  1.00E+00 peak memory=       173 mb
 dcop: begin dcop,  cpu clock=  1.00E+00
 dcop: end dcop,  cpu clock=  1.00E+00 peak memory=       173 mb  tot_iter=       9
 sweep: tran tran0    begin, stop_t=  2.00E-08 #sweeps= 201 cpu clock=  1.00E+00
 tran: time= 2.2052E-09 tot_iter=      10 conv_iter=       5 cpu clock= 1.00E+00
 tran: time= 4.2052E-09 tot_iter=      14 conv_iter=       7 cpu clock= 1.00E+00
 tran: time= 6.2052E-09 tot_iter=      18 conv_iter=       9 cpu clock= 1.01E+00
 tran: time= 8.2052E-09 tot_iter=      22 conv_iter=      11 cpu clock= 1.01E+00
 tran: time= 1.0000E-08 tot_iter=      26 conv_iter=      13 cpu clock= 1.01E+00
 tran: time= 1.2050E-08 tot_iter=     115 conv_iter=      46 cpu clock= 1.01E+00
 tran: time= 1.4050E-08 tot_iter=     119 conv_iter=      48 cpu clock= 1.01E+00
 tran: time= 1.6050E-08 tot_iter=     123 conv_iter=      50 cpu clock= 1.01E+00
 tran: time= 1.8050E-08 tot_iter=     127 conv_iter=      52 cpu clock= 1.01E+00
 tran: time= 2.0000E-08 tot_iter=     131 conv_iter=      54 cpu clock= 1.01E+00
 sweep: tran tran0    end,  cpu clock=  1.01E+00 peak memory=       173 mb
>info:         ***** hspice job concluded
 init: begin read circuit files,  cpu clock=  1.02E+00
       option search = /Tools/Synopsys/Hspice/hspice/parts/ad
       option search = /Tools/Synopsys/Hspice/hspice/parts/ad
       option search = /Tools/Synopsys/Hspice/hspice/parts/behave
       option search = /Tools/Synopsys/Hspice/hspice/parts/bjt
       option search = /Tools/Synopsys/Hspice/hspice/parts/burr_brn
       option search = /Tools/Synopsys/Hspice/hspice/parts/comlinear
       option search = /Tools/Synopsys/Hspice/hspice/parts/dio
       option search = /Tools/Synopsys/Hspice/hspice/parts/fet
       option search = /Tools/Synopsys/Hspice/hspice/parts/lin_tech
       option search = /Tools/Synopsys/Hspice/hspice/parts/pci
       option search = /Tools/Synopsys/Hspice/hspice/parts/signet
       option search = /Tools/Synopsys/Hspice/hspice/parts/ti
       option search = /Tools/Synopsys/Hspice/hspice/parts/tline
       option search = /Tools/Synopsys/Hspice/hspice/parts/xilinx
       option runlvl
       option delmax =    1.000E-09
       option artist =     2.00
       option ingold =     2.00
       option parhier = local
       option psf =     2.00
 init: end read circuit files,  cpu clock=  1.02E+00 peak memory=       173 mb
 init: begin check errors,  cpu clock=  1.02E+00
 init: end check errors,  cpu clock=  1.02E+00 peak memory=       173 mb
 init: begin setup matrix, pivot=     0 cpu clock=  1.02E+00
       establish matrix -- done,  cpu clock=  1.02E+00 peak memory=       173 mb
       re-order matrix -- done,  cpu clock=  1.02E+00 peak memory=       173 mb
 init: end setup matrix,  cpu clock=  1.02E+00 peak memory=       173 mb
 dcop: begin dcop,  cpu clock=  1.02E+00
 dcop: end dcop,  cpu clock=  1.02E+00 peak memory=       173 mb  tot_iter=       9
 sweep: tran tran0    begin, stop_t=  2.00E-08 #sweeps= 201 cpu clock=  1.02E+00
 tran: time= 2.2052E-09 tot_iter=      10 conv_iter=       5 cpu clock= 1.02E+00
 tran: time= 4.2052E-09 tot_iter=      14 conv_iter=       7 cpu clock= 1.02E+00
 tran: time= 6.2052E-09 tot_iter=      18 conv_iter=       9 cpu clock= 1.02E+00
 tran: time= 8.2052E-09 tot_iter=      22 conv_iter=      11 cpu clock= 1.02E+00
 tran: time= 1.0205E-08 tot_iter=      26 conv_iter=      13 cpu clock= 1.02E+00
 tran: time= 1.2205E-08 tot_iter=      30 conv_iter=      15 cpu clock= 1.02E+00
 tran: time= 1.4205E-08 tot_iter=      34 conv_iter=      17 cpu clock= 1.02E+00
 tran: time= 1.6205E-08 tot_iter=      38 conv_iter=      19 cpu clock= 1.02E+00
 tran: time= 1.8205E-08 tot_iter=      42 conv_iter=      21 cpu clock= 1.02E+00
 tran: time= 2.0000E-08 tot_iter=      46 conv_iter=      23 cpu clock= 1.02E+00
 sweep: tran tran0    end,  cpu clock=  1.02E+00 peak memory=       173 mb
>info:         ***** hspice job concluded
 init: begin read circuit files,  cpu clock=  1.03E+00
       option search = /Tools/Synopsys/Hspice/hspice/parts/ad
       option search = /Tools/Synopsys/Hspice/hspice/parts/ad
       option search = /Tools/Synopsys/Hspice/hspice/parts/behave
       option search = /Tools/Synopsys/Hspice/hspice/parts/bjt
       option search = /Tools/Synopsys/Hspice/hspice/parts/burr_brn
       option search = /Tools/Synopsys/Hspice/hspice/parts/comlinear
       option search = /Tools/Synopsys/Hspice/hspice/parts/dio
       option search = /Tools/Synopsys/Hspice/hspice/parts/fet
       option search = /Tools/Synopsys/Hspice/hspice/parts/lin_tech
       option search = /Tools/Synopsys/Hspice/hspice/parts/pci
       option search = /Tools/Synopsys/Hspice/hspice/parts/signet
       option search = /Tools/Synopsys/Hspice/hspice/parts/ti
       option search = /Tools/Synopsys/Hspice/hspice/parts/tline
       option search = /Tools/Synopsys/Hspice/hspice/parts/xilinx
       option runlvl
       option delmax =    1.000E-09
       option artist =     2.00
       option ingold =     2.00
       option parhier = local
       option psf =     2.00
 init: end read circuit files,  cpu clock=  1.03E+00 peak memory=       173 mb
 init: begin check errors,  cpu clock=  1.03E+00
 init: end check errors,  cpu clock=  1.03E+00 peak memory=       173 mb
 init: begin setup matrix, pivot=     0 cpu clock=  1.03E+00
       establish matrix -- done,  cpu clock=  1.03E+00 peak memory=       173 mb
       re-order matrix -- done,  cpu clock=  1.03E+00 peak memory=       173 mb
 init: end setup matrix,  cpu clock=  1.03E+00 peak memory=       173 mb
 dcop: begin dcop,  cpu clock=  1.03E+00
 dcop: end dcop,  cpu clock=  1.04E+00 peak memory=       173 mb  tot_iter=      10
 sweep: tran tran0    begin, stop_t=  2.00E-08 #sweeps= 201 cpu clock=  1.04E+00
 tran: time= 2.2052E-09 tot_iter=      10 conv_iter=       5 cpu clock= 1.04E+00
 tran: time= 4.2052E-09 tot_iter=      14 conv_iter=       7 cpu clock= 1.04E+00
 tran: time= 6.2052E-09 tot_iter=      18 conv_iter=       9 cpu clock= 1.04E+00
 tran: time= 8.2052E-09 tot_iter=      22 conv_iter=      11 cpu clock= 1.04E+00
 tran: time= 1.0000E-08 tot_iter=      26 conv_iter=      13 cpu clock= 1.04E+00
 tran: time= 1.2839E-08 tot_iter=     124 conv_iter=      49 cpu clock= 1.04E+00
 tran: time= 1.4839E-08 tot_iter=     128 conv_iter=      51 cpu clock= 1.04E+00
 tran: time= 1.6839E-08 tot_iter=     132 conv_iter=      53 cpu clock= 1.04E+00
 tran: time= 1.8839E-08 tot_iter=     136 conv_iter=      55 cpu clock= 1.04E+00
 tran: time= 2.0000E-08 tot_iter=     140 conv_iter=      57 cpu clock= 1.04E+00
 sweep: tran tran0    end,  cpu clock=  1.04E+00 peak memory=       173 mb
>info:         ***** hspice job concluded
 init: begin read circuit files,  cpu clock=  1.05E+00
       option search = /Tools/Synopsys/Hspice/hspice/parts/ad
       option search = /Tools/Synopsys/Hspice/hspice/parts/ad
       option search = /Tools/Synopsys/Hspice/hspice/parts/behave
       option search = /Tools/Synopsys/Hspice/hspice/parts/bjt
       option search = /Tools/Synopsys/Hspice/hspice/parts/burr_brn
       option search = /Tools/Synopsys/Hspice/hspice/parts/comlinear
       option search = /Tools/Synopsys/Hspice/hspice/parts/dio
       option search = /Tools/Synopsys/Hspice/hspice/parts/fet
       option search = /Tools/Synopsys/Hspice/hspice/parts/lin_tech
       option search = /Tools/Synopsys/Hspice/hspice/parts/pci
       option search = /Tools/Synopsys/Hspice/hspice/parts/signet
       option search = /Tools/Synopsys/Hspice/hspice/parts/ti
       option search = /Tools/Synopsys/Hspice/hspice/parts/tline
       option search = /Tools/Synopsys/Hspice/hspice/parts/xilinx
       option runlvl
       option delmax =    1.000E-09
       option artist =     2.00
       option ingold =     2.00
       option parhier = local
       option psf =     2.00
 init: end read circuit files,  cpu clock=  1.05E+00 peak memory=       173 mb
 init: begin check errors,  cpu clock=  1.05E+00
 init: end check errors,  cpu clock=  1.05E+00 peak memory=       173 mb
 init: begin setup matrix, pivot=     0 cpu clock=  1.05E+00
       establish matrix -- done,  cpu clock=  1.05E+00 peak memory=       173 mb
       re-order matrix -- done,  cpu clock=  1.05E+00 peak memory=       173 mb
 init: end setup matrix,  cpu clock=  1.05E+00 peak memory=       173 mb
 dcop: begin dcop,  cpu clock=  1.05E+00
 dcop: end dcop,  cpu clock=  1.05E+00 peak memory=       173 mb  tot_iter=      10
 sweep: tran tran0    begin, stop_t=  2.00E-08 #sweeps= 201 cpu clock=  1.05E+00
 tran: time= 2.2052E-09 tot_iter=      10 conv_iter=       5 cpu clock= 1.06E+00
 tran: time= 4.2052E-09 tot_iter=      14 conv_iter=       7 cpu clock= 1.06E+00
 tran: time= 6.2052E-09 tot_iter=      18 conv_iter=       9 cpu clock= 1.06E+00
 tran: time= 8.2052E-09 tot_iter=      22 conv_iter=      11 cpu clock= 1.06E+00
 tran: time= 1.0000E-08 tot_iter=      26 conv_iter=      13 cpu clock= 1.06E+00
 tran: time= 1.2341E-08 tot_iter=     122 conv_iter=      48 cpu clock= 1.06E+00
 tran: time= 1.4341E-08 tot_iter=     126 conv_iter=      50 cpu clock= 1.06E+00
 tran: time= 1.6341E-08 tot_iter=     130 conv_iter=      52 cpu clock= 1.06E+00
 tran: time= 1.8341E-08 tot_iter=     134 conv_iter=      54 cpu clock= 1.06E+00
 tran: time= 2.0000E-08 tot_iter=     138 conv_iter=      56 cpu clock= 1.06E+00
 sweep: tran tran0    end,  cpu clock=  1.06E+00 peak memory=       173 mb
>info:         ***** hspice job concluded
 init: begin read circuit files,  cpu clock=  1.07E+00
       option search = /Tools/Synopsys/Hspice/hspice/parts/ad
       option search = /Tools/Synopsys/Hspice/hspice/parts/ad
       option search = /Tools/Synopsys/Hspice/hspice/parts/behave
       option search = /Tools/Synopsys/Hspice/hspice/parts/bjt
       option search = /Tools/Synopsys/Hspice/hspice/parts/burr_brn
       option search = /Tools/Synopsys/Hspice/hspice/parts/comlinear
       option search = /Tools/Synopsys/Hspice/hspice/parts/dio
       option search = /Tools/Synopsys/Hspice/hspice/parts/fet
       option search = /Tools/Synopsys/Hspice/hspice/parts/lin_tech
       option search = /Tools/Synopsys/Hspice/hspice/parts/pci
       option search = /Tools/Synopsys/Hspice/hspice/parts/signet
       option search = /Tools/Synopsys/Hspice/hspice/parts/ti
       option search = /Tools/Synopsys/Hspice/hspice/parts/tline
       option search = /Tools/Synopsys/Hspice/hspice/parts/xilinx
       option runlvl
       option delmax =    1.000E-09
       option artist =     2.00
       option ingold =     2.00
       option parhier = local
       option psf =     2.00
 init: end read circuit files,  cpu clock=  1.07E+00 peak memory=       173 mb
 init: begin check errors,  cpu clock=  1.07E+00
 init: end check errors,  cpu clock=  1.07E+00 peak memory=       173 mb
 init: begin setup matrix, pivot=     0 cpu clock=  1.07E+00
       establish matrix -- done,  cpu clock=  1.07E+00 peak memory=       173 mb
       re-order matrix -- done,  cpu clock=  1.07E+00 peak memory=       173 mb
 init: end setup matrix,  cpu clock=  1.07E+00 peak memory=       173 mb
 dcop: begin dcop,  cpu clock=  1.07E+00
 dcop: end dcop,  cpu clock=  1.07E+00 peak memory=       173 mb  tot_iter=       9
 sweep: tran tran0    begin, stop_t=  2.00E-08 #sweeps= 201 cpu clock=  1.07E+00
 tran: time= 2.2052E-09 tot_iter=      10 conv_iter=       5 cpu clock= 1.07E+00
 tran: time= 4.2052E-09 tot_iter=      14 conv_iter=       7 cpu clock= 1.07E+00
 tran: time= 6.2052E-09 tot_iter=      18 conv_iter=       9 cpu clock= 1.07E+00
 tran: time= 8.2052E-09 tot_iter=      22 conv_iter=      11 cpu clock= 1.07E+00
 tran: time= 1.0000E-08 tot_iter=      26 conv_iter=      13 cpu clock= 1.07E+00
 tran: time= 1.2351E-08 tot_iter=      93 conv_iter=      40 cpu clock= 1.08E+00
 tran: time= 1.4351E-08 tot_iter=      97 conv_iter=      42 cpu clock= 1.08E+00
 tran: time= 1.6351E-08 tot_iter=     101 conv_iter=      44 cpu clock= 1.08E+00
 tran: time= 1.8351E-08 tot_iter=     105 conv_iter=      46 cpu clock= 1.08E+00
 tran: time= 2.0000E-08 tot_iter=     109 conv_iter=      48 cpu clock= 1.08E+00
 sweep: tran tran0    end,  cpu clock=  1.08E+00 peak memory=       173 mb
>info:         ***** hspice job concluded
 init: begin read circuit files,  cpu clock=  1.08E+00
       option search = /Tools/Synopsys/Hspice/hspice/parts/ad
       option search = /Tools/Synopsys/Hspice/hspice/parts/ad
       option search = /Tools/Synopsys/Hspice/hspice/parts/behave
       option search = /Tools/Synopsys/Hspice/hspice/parts/bjt
       option search = /Tools/Synopsys/Hspice/hspice/parts/burr_brn
       option search = /Tools/Synopsys/Hspice/hspice/parts/comlinear
       option search = /Tools/Synopsys/Hspice/hspice/parts/dio
       option search = /Tools/Synopsys/Hspice/hspice/parts/fet
       option search = /Tools/Synopsys/Hspice/hspice/parts/lin_tech
       option search = /Tools/Synopsys/Hspice/hspice/parts/pci
       option search = /Tools/Synopsys/Hspice/hspice/parts/signet
       option search = /Tools/Synopsys/Hspice/hspice/parts/ti
       option search = /Tools/Synopsys/Hspice/hspice/parts/tline
       option search = /Tools/Synopsys/Hspice/hspice/parts/xilinx
       option runlvl
       option delmax =    1.000E-09
       option artist =     2.00
       option ingold =     2.00
       option parhier = local
       option psf =     2.00
 init: end read circuit files,  cpu clock=  1.09E+00 peak memory=       173 mb
 init: begin check errors,  cpu clock=  1.09E+00
 init: end check errors,  cpu clock=  1.09E+00 peak memory=       173 mb
 init: begin setup matrix, pivot=     0 cpu clock=  1.09E+00
       establish matrix -- done,  cpu clock=  1.09E+00 peak memory=       173 mb
       re-order matrix -- done,  cpu clock=  1.09E+00 peak memory=       173 mb
 init: end setup matrix,  cpu clock=  1.09E+00 peak memory=       173 mb
 dcop: begin dcop,  cpu clock=  1.09E+00
 dcop: end dcop,  cpu clock=  1.09E+00 peak memory=       173 mb  tot_iter=       9
 sweep: tran tran0    begin, stop_t=  2.00E-08 #sweeps= 201 cpu clock=  1.09E+00
 tran: time= 2.2052E-09 tot_iter=      10 conv_iter=       5 cpu clock= 1.09E+00
 tran: time= 4.2052E-09 tot_iter=      14 conv_iter=       7 cpu clock= 1.09E+00
 tran: time= 6.2052E-09 tot_iter=      18 conv_iter=       9 cpu clock= 1.09E+00
 tran: time= 8.2052E-09 tot_iter=      22 conv_iter=      11 cpu clock= 1.09E+00
 tran: time= 1.0000E-08 tot_iter=      26 conv_iter=      13 cpu clock= 1.09E+00
 tran: time= 1.2158E-08 tot_iter=     124 conv_iter=      49 cpu clock= 1.10E+00
 tran: time= 1.4158E-08 tot_iter=     129 conv_iter=      51 cpu clock= 1.10E+00
 tran: time= 1.6158E-08 tot_iter=     133 conv_iter=      53 cpu clock= 1.10E+00
 tran: time= 1.8158E-08 tot_iter=     137 conv_iter=      55 cpu clock= 1.10E+00
 tran: time= 2.0000E-08 tot_iter=     141 conv_iter=      57 cpu clock= 1.10E+00
 sweep: tran tran0    end,  cpu clock=  1.10E+00 peak memory=       173 mb
>info:         ***** hspice job concluded
 init: begin read circuit files,  cpu clock=  1.10E+00
       option search = /Tools/Synopsys/Hspice/hspice/parts/ad
       option search = /Tools/Synopsys/Hspice/hspice/parts/ad
       option search = /Tools/Synopsys/Hspice/hspice/parts/behave
       option search = /Tools/Synopsys/Hspice/hspice/parts/bjt
       option search = /Tools/Synopsys/Hspice/hspice/parts/burr_brn
       option search = /Tools/Synopsys/Hspice/hspice/parts/comlinear
       option search = /Tools/Synopsys/Hspice/hspice/parts/dio
       option search = /Tools/Synopsys/Hspice/hspice/parts/fet
       option search = /Tools/Synopsys/Hspice/hspice/parts/lin_tech
       option search = /Tools/Synopsys/Hspice/hspice/parts/pci
       option search = /Tools/Synopsys/Hspice/hspice/parts/signet
       option search = /Tools/Synopsys/Hspice/hspice/parts/ti
       option search = /Tools/Synopsys/Hspice/hspice/parts/tline
       option search = /Tools/Synopsys/Hspice/hspice/parts/xilinx
       option runlvl
       option delmax =    1.000E-09
       option artist =     2.00
       option ingold =     2.00
       option parhier = local
       option psf =     2.00
 init: end read circuit files,  cpu clock=  1.10E+00 peak memory=       173 mb
 init: begin check errors,  cpu clock=  1.10E+00
 init: end check errors,  cpu clock=  1.11E+00 peak memory=       173 mb
 init: begin setup matrix, pivot=     0 cpu clock=  1.11E+00
       establish matrix -- done,  cpu clock=  1.11E+00 peak memory=       173 mb
       re-order matrix -- done,  cpu clock=  1.11E+00 peak memory=       173 mb
 init: end setup matrix,  cpu clock=  1.11E+00 peak memory=       173 mb
 dcop: begin dcop,  cpu clock=  1.11E+00
 dcop: end dcop,  cpu clock=  1.11E+00 peak memory=       173 mb  tot_iter=       9
 sweep: tran tran0    begin, stop_t=  2.00E-08 #sweeps= 201 cpu clock=  1.11E+00
 tran: time= 2.2052E-09 tot_iter=      10 conv_iter=       5 cpu clock= 1.11E+00
 tran: time= 4.2052E-09 tot_iter=      14 conv_iter=       7 cpu clock= 1.11E+00
 tran: time= 6.2052E-09 tot_iter=      18 conv_iter=       9 cpu clock= 1.11E+00
 tran: time= 8.2052E-09 tot_iter=      22 conv_iter=      11 cpu clock= 1.11E+00
 tran: time= 1.0000E-08 tot_iter=      26 conv_iter=      13 cpu clock= 1.11E+00
 tran: time= 1.2044E-08 tot_iter=     122 conv_iter=      47 cpu clock= 1.12E+00
 tran: time= 1.4816E-08 tot_iter=     131 conv_iter=      50 cpu clock= 1.12E+00
 tran: time= 1.6816E-08 tot_iter=     135 conv_iter=      52 cpu clock= 1.12E+00
 tran: time= 1.8816E-08 tot_iter=     139 conv_iter=      54 cpu clock= 1.12E+00
 tran: time= 2.0000E-08 tot_iter=     143 conv_iter=      56 cpu clock= 1.12E+00
 sweep: tran tran0    end,  cpu clock=  1.12E+00 peak memory=       173 mb
>info:         ***** hspice job concluded
 init: begin read circuit files,  cpu clock=  1.12E+00
       option search = /Tools/Synopsys/Hspice/hspice/parts/ad
       option search = /Tools/Synopsys/Hspice/hspice/parts/ad
       option search = /Tools/Synopsys/Hspice/hspice/parts/behave
       option search = /Tools/Synopsys/Hspice/hspice/parts/bjt
       option search = /Tools/Synopsys/Hspice/hspice/parts/burr_brn
       option search = /Tools/Synopsys/Hspice/hspice/parts/comlinear
       option search = /Tools/Synopsys/Hspice/hspice/parts/dio
       option search = /Tools/Synopsys/Hspice/hspice/parts/fet
       option search = /Tools/Synopsys/Hspice/hspice/parts/lin_tech
       option search = /Tools/Synopsys/Hspice/hspice/parts/pci
       option search = /Tools/Synopsys/Hspice/hspice/parts/signet
       option search = /Tools/Synopsys/Hspice/hspice/parts/ti
       option search = /Tools/Synopsys/Hspice/hspice/parts/tline
       option search = /Tools/Synopsys/Hspice/hspice/parts/xilinx
       option runlvl
       option delmax =    1.000E-09
       option artist =     2.00
       option ingold =     2.00
       option parhier = local
       option psf =     2.00
 init: end read circuit files,  cpu clock=  1.12E+00 peak memory=       173 mb
 init: begin check errors,  cpu clock=  1.12E+00
 init: end check errors,  cpu clock=  1.13E+00 peak memory=       173 mb
 init: begin setup matrix, pivot=     0 cpu clock=  1.13E+00
       establish matrix -- done,  cpu clock=  1.13E+00 peak memory=       173 mb
       re-order matrix -- done,  cpu clock=  1.13E+00 peak memory=       173 mb
 init: end setup matrix,  cpu clock=  1.13E+00 peak memory=       173 mb
 dcop: begin dcop,  cpu clock=  1.13E+00
 dcop: end dcop,  cpu clock=  1.13E+00 peak memory=       173 mb  tot_iter=       9
 sweep: tran tran0    begin, stop_t=  2.00E-08 #sweeps= 201 cpu clock=  1.13E+00
 tran: time= 2.2052E-09 tot_iter=      10 conv_iter=       5 cpu clock= 1.13E+00
 tran: time= 4.2052E-09 tot_iter=      14 conv_iter=       7 cpu clock= 1.13E+00
 tran: time= 6.2052E-09 tot_iter=      18 conv_iter=       9 cpu clock= 1.13E+00
 tran: time= 8.2052E-09 tot_iter=      22 conv_iter=      11 cpu clock= 1.13E+00
 tran: time= 1.0000E-08 tot_iter=      26 conv_iter=      13 cpu clock= 1.13E+00
 tran: time= 1.2324E-08 tot_iter=     110 conv_iter=      44 cpu clock= 1.14E+00
 tran: time= 1.4324E-08 tot_iter=     114 conv_iter=      46 cpu clock= 1.14E+00
 tran: time= 1.6324E-08 tot_iter=     118 conv_iter=      48 cpu clock= 1.14E+00
 tran: time= 1.8324E-08 tot_iter=     122 conv_iter=      50 cpu clock= 1.14E+00
 tran: time= 2.0000E-08 tot_iter=     126 conv_iter=      52 cpu clock= 1.14E+00
 sweep: tran tran0    end,  cpu clock=  1.14E+00 peak memory=       173 mb
>info:         ***** hspice job concluded
 init: begin read circuit files,  cpu clock=  1.14E+00
       option search = /Tools/Synopsys/Hspice/hspice/parts/ad
       option search = /Tools/Synopsys/Hspice/hspice/parts/ad
       option search = /Tools/Synopsys/Hspice/hspice/parts/behave
       option search = /Tools/Synopsys/Hspice/hspice/parts/bjt
       option search = /Tools/Synopsys/Hspice/hspice/parts/burr_brn
       option search = /Tools/Synopsys/Hspice/hspice/parts/comlinear
       option search = /Tools/Synopsys/Hspice/hspice/parts/dio
       option search = /Tools/Synopsys/Hspice/hspice/parts/fet
       option search = /Tools/Synopsys/Hspice/hspice/parts/lin_tech
       option search = /Tools/Synopsys/Hspice/hspice/parts/pci
       option search = /Tools/Synopsys/Hspice/hspice/parts/signet
       option search = /Tools/Synopsys/Hspice/hspice/parts/ti
       option search = /Tools/Synopsys/Hspice/hspice/parts/tline
       option search = /Tools/Synopsys/Hspice/hspice/parts/xilinx
       option runlvl
       option delmax =    1.000E-09
       option artist =     2.00
       option ingold =     2.00
       option parhier = local
       option psf =     2.00
 init: end read circuit files,  cpu clock=  1.14E+00 peak memory=       173 mb
 init: begin check errors,  cpu clock=  1.14E+00
 init: end check errors,  cpu clock=  1.15E+00 peak memory=       173 mb
 init: begin setup matrix, pivot=     0 cpu clock=  1.15E+00
       establish matrix -- done,  cpu clock=  1.15E+00 peak memory=       173 mb
       re-order matrix -- done,  cpu clock=  1.15E+00 peak memory=       173 mb
 init: end setup matrix,  cpu clock=  1.15E+00 peak memory=       173 mb
 dcop: begin dcop,  cpu clock=  1.15E+00
 dcop: end dcop,  cpu clock=  1.15E+00 peak memory=       173 mb  tot_iter=       6
 sweep: tran tran0    begin, stop_t=  2.00E-08 #sweeps= 201 cpu clock=  1.15E+00
 tran: time= 2.2052E-09 tot_iter=      10 conv_iter=       5 cpu clock= 1.15E+00
 tran: time= 4.2052E-09 tot_iter=      14 conv_iter=       7 cpu clock= 1.15E+00
 tran: time= 6.2052E-09 tot_iter=      18 conv_iter=       9 cpu clock= 1.15E+00
 tran: time= 8.2052E-09 tot_iter=      22 conv_iter=      11 cpu clock= 1.15E+00
 tran: time= 1.0000E-08 tot_iter=      26 conv_iter=      13 cpu clock= 1.15E+00
 tran: time= 1.2401E-08 tot_iter=     119 conv_iter=      47 cpu clock= 1.15E+00
 tran: time= 1.4401E-08 tot_iter=     123 conv_iter=      49 cpu clock= 1.15E+00
 tran: time= 1.6401E-08 tot_iter=     127 conv_iter=      51 cpu clock= 1.15E+00
 tran: time= 1.8401E-08 tot_iter=     131 conv_iter=      53 cpu clock= 1.16E+00
 tran: time= 2.0000E-08 tot_iter=     135 conv_iter=      55 cpu clock= 1.16E+00
 sweep: tran tran0    end,  cpu clock=  1.16E+00 peak memory=       173 mb
>info:         ***** hspice job concluded
 init: begin read circuit files,  cpu clock=  1.16E+00
       option search = /Tools/Synopsys/Hspice/hspice/parts/ad
       option search = /Tools/Synopsys/Hspice/hspice/parts/ad
       option search = /Tools/Synopsys/Hspice/hspice/parts/behave
       option search = /Tools/Synopsys/Hspice/hspice/parts/bjt
       option search = /Tools/Synopsys/Hspice/hspice/parts/burr_brn
       option search = /Tools/Synopsys/Hspice/hspice/parts/comlinear
       option search = /Tools/Synopsys/Hspice/hspice/parts/dio
       option search = /Tools/Synopsys/Hspice/hspice/parts/fet
       option search = /Tools/Synopsys/Hspice/hspice/parts/lin_tech
       option search = /Tools/Synopsys/Hspice/hspice/parts/pci
       option search = /Tools/Synopsys/Hspice/hspice/parts/signet
       option search = /Tools/Synopsys/Hspice/hspice/parts/ti
       option search = /Tools/Synopsys/Hspice/hspice/parts/tline
       option search = /Tools/Synopsys/Hspice/hspice/parts/xilinx
       option runlvl
       option delmax =    1.000E-09
       option artist =     2.00
       option ingold =     2.00
       option parhier = local
       option psf =     2.00
 init: end read circuit files,  cpu clock=  1.16E+00 peak memory=       173 mb
 init: begin check errors,  cpu clock=  1.16E+00
 init: end check errors,  cpu clock=  1.16E+00 peak memory=       173 mb
 init: begin setup matrix, pivot=     0 cpu clock=  1.16E+00
       establish matrix -- done,  cpu clock=  1.16E+00 peak memory=       173 mb
       re-order matrix -- done,  cpu clock=  1.16E+00 peak memory=       173 mb
 init: end setup matrix,  cpu clock=  1.16E+00 peak memory=       173 mb
 dcop: begin dcop,  cpu clock=  1.17E+00
 dcop: end dcop,  cpu clock=  1.17E+00 peak memory=       173 mb  tot_iter=       6
 sweep: tran tran0    begin, stop_t=  2.00E-08 #sweeps= 201 cpu clock=  1.17E+00
 tran: time= 2.2052E-09 tot_iter=      10 conv_iter=       5 cpu clock= 1.17E+00
 tran: time= 4.2052E-09 tot_iter=      14 conv_iter=       7 cpu clock= 1.17E+00
 tran: time= 6.2052E-09 tot_iter=      18 conv_iter=       9 cpu clock= 1.17E+00
 tran: time= 8.2052E-09 tot_iter=      22 conv_iter=      11 cpu clock= 1.17E+00
 tran: time= 1.0000E-08 tot_iter=      26 conv_iter=      13 cpu clock= 1.17E+00
 tran: time= 1.2356E-08 tot_iter=     154 conv_iter=      57 cpu clock= 1.18E+00
 tran: time= 1.4067E-08 tot_iter=     163 conv_iter=      60 cpu clock= 1.18E+00
 tran: time= 1.6842E-08 tot_iter=     172 conv_iter=      63 cpu clock= 1.18E+00
 tran: time= 1.8842E-08 tot_iter=     177 conv_iter=      65 cpu clock= 1.18E+00
 tran: time= 2.0000E-08 tot_iter=     182 conv_iter=      67 cpu clock= 1.18E+00
 sweep: tran tran0    end,  cpu clock=  1.18E+00 peak memory=       173 mb
>info:         ***** hspice job concluded
 init: begin read circuit files,  cpu clock=  1.18E+00
       option search = /Tools/Synopsys/Hspice/hspice/parts/ad
       option search = /Tools/Synopsys/Hspice/hspice/parts/ad
       option search = /Tools/Synopsys/Hspice/hspice/parts/behave
       option search = /Tools/Synopsys/Hspice/hspice/parts/bjt
       option search = /Tools/Synopsys/Hspice/hspice/parts/burr_brn
       option search = /Tools/Synopsys/Hspice/hspice/parts/comlinear
       option search = /Tools/Synopsys/Hspice/hspice/parts/dio
       option search = /Tools/Synopsys/Hspice/hspice/parts/fet
       option search = /Tools/Synopsys/Hspice/hspice/parts/lin_tech
       option search = /Tools/Synopsys/Hspice/hspice/parts/pci
       option search = /Tools/Synopsys/Hspice/hspice/parts/signet
       option search = /Tools/Synopsys/Hspice/hspice/parts/ti
       option search = /Tools/Synopsys/Hspice/hspice/parts/tline
       option search = /Tools/Synopsys/Hspice/hspice/parts/xilinx
       option runlvl
       option delmax =    1.000E-09
       option artist =     2.00
       option ingold =     2.00
       option parhier = local
       option psf =     2.00
 init: end read circuit files,  cpu clock=  1.18E+00 peak memory=       173 mb
 init: begin check errors,  cpu clock=  1.18E+00
 init: end check errors,  cpu clock=  1.19E+00 peak memory=       173 mb
 init: begin setup matrix, pivot=     0 cpu clock=  1.19E+00
       establish matrix -- done,  cpu clock=  1.19E+00 peak memory=       173 mb
       re-order matrix -- done,  cpu clock=  1.19E+00 peak memory=       173 mb
 init: end setup matrix,  cpu clock=  1.19E+00 peak memory=       173 mb
 dcop: begin dcop,  cpu clock=  1.19E+00
 dcop: end dcop,  cpu clock=  1.19E+00 peak memory=       173 mb  tot_iter=       9
 sweep: tran tran0    begin, stop_t=  2.00E-08 #sweeps= 201 cpu clock=  1.19E+00
 tran: time= 2.2052E-09 tot_iter=      10 conv_iter=       5 cpu clock= 1.19E+00
 tran: time= 4.2052E-09 tot_iter=      14 conv_iter=       7 cpu clock= 1.19E+00
 tran: time= 6.2052E-09 tot_iter=      18 conv_iter=       9 cpu clock= 1.19E+00
 tran: time= 8.2052E-09 tot_iter=      22 conv_iter=      11 cpu clock= 1.19E+00
 tran: time= 1.0205E-08 tot_iter=      26 conv_iter=      13 cpu clock= 1.19E+00
 tran: time= 1.2205E-08 tot_iter=      30 conv_iter=      15 cpu clock= 1.19E+00
 tran: time= 1.4205E-08 tot_iter=      34 conv_iter=      17 cpu clock= 1.19E+00
 tran: time= 1.6205E-08 tot_iter=      38 conv_iter=      19 cpu clock= 1.19E+00
 tran: time= 1.8205E-08 tot_iter=      42 conv_iter=      21 cpu clock= 1.19E+00
 tran: time= 2.0000E-08 tot_iter=      46 conv_iter=      23 cpu clock= 1.19E+00
 sweep: tran tran0    end,  cpu clock=  1.19E+00 peak memory=       173 mb
>info:         ***** hspice job concluded
 init: begin read circuit files,  cpu clock=  1.19E+00
       option search = /Tools/Synopsys/Hspice/hspice/parts/ad
       option search = /Tools/Synopsys/Hspice/hspice/parts/ad
       option search = /Tools/Synopsys/Hspice/hspice/parts/behave
       option search = /Tools/Synopsys/Hspice/hspice/parts/bjt
       option search = /Tools/Synopsys/Hspice/hspice/parts/burr_brn
       option search = /Tools/Synopsys/Hspice/hspice/parts/comlinear
       option search = /Tools/Synopsys/Hspice/hspice/parts/dio
       option search = /Tools/Synopsys/Hspice/hspice/parts/fet
       option search = /Tools/Synopsys/Hspice/hspice/parts/lin_tech
       option search = /Tools/Synopsys/Hspice/hspice/parts/pci
       option search = /Tools/Synopsys/Hspice/hspice/parts/signet
       option search = /Tools/Synopsys/Hspice/hspice/parts/ti
       option search = /Tools/Synopsys/Hspice/hspice/parts/tline
       option search = /Tools/Synopsys/Hspice/hspice/parts/xilinx
       option runlvl
       option delmax =    1.000E-09
       option artist =     2.00
       option ingold =     2.00
       option parhier = local
       option psf =     2.00
 init: end read circuit files,  cpu clock=  1.20E+00 peak memory=       173 mb
 init: begin check errors,  cpu clock=  1.20E+00
 init: end check errors,  cpu clock=  1.20E+00 peak memory=       173 mb
 init: begin setup matrix, pivot=     0 cpu clock=  1.20E+00
       establish matrix -- done,  cpu clock=  1.20E+00 peak memory=       173 mb
       re-order matrix -- done,  cpu clock=  1.20E+00 peak memory=       173 mb
 init: end setup matrix,  cpu clock=  1.20E+00 peak memory=       173 mb
 dcop: begin dcop,  cpu clock=  1.20E+00
 dcop: end dcop,  cpu clock=  1.20E+00 peak memory=       173 mb  tot_iter=       9
 sweep: tran tran0    begin, stop_t=  2.00E-08 #sweeps= 201 cpu clock=  1.20E+00
 tran: time= 2.2052E-09 tot_iter=      10 conv_iter=       5 cpu clock= 1.20E+00
 tran: time= 4.2052E-09 tot_iter=      14 conv_iter=       7 cpu clock= 1.20E+00
 tran: time= 6.2052E-09 tot_iter=      18 conv_iter=       9 cpu clock= 1.20E+00
 tran: time= 8.2052E-09 tot_iter=      22 conv_iter=      11 cpu clock= 1.20E+00
 tran: time= 1.0000E-08 tot_iter=      26 conv_iter=      13 cpu clock= 1.20E+00
 tran: time= 1.2317E-08 tot_iter=     131 conv_iter=      51 cpu clock= 1.21E+00
 tran: time= 1.4317E-08 tot_iter=     136 conv_iter=      53 cpu clock= 1.21E+00
 tran: time= 1.6317E-08 tot_iter=     140 conv_iter=      55 cpu clock= 1.21E+00
 tran: time= 1.8317E-08 tot_iter=     144 conv_iter=      57 cpu clock= 1.21E+00
 tran: time= 2.0000E-08 tot_iter=     148 conv_iter=      59 cpu clock= 1.21E+00
 sweep: tran tran0    end,  cpu clock=  1.21E+00 peak memory=       173 mb
>info:         ***** hspice job concluded
 init: begin read circuit files,  cpu clock=  1.21E+00
       option search = /Tools/Synopsys/Hspice/hspice/parts/ad
       option search = /Tools/Synopsys/Hspice/hspice/parts/ad
       option search = /Tools/Synopsys/Hspice/hspice/parts/behave
       option search = /Tools/Synopsys/Hspice/hspice/parts/bjt
       option search = /Tools/Synopsys/Hspice/hspice/parts/burr_brn
       option search = /Tools/Synopsys/Hspice/hspice/parts/comlinear
       option search = /Tools/Synopsys/Hspice/hspice/parts/dio
       option search = /Tools/Synopsys/Hspice/hspice/parts/fet
       option search = /Tools/Synopsys/Hspice/hspice/parts/lin_tech
       option search = /Tools/Synopsys/Hspice/hspice/parts/pci
       option search = /Tools/Synopsys/Hspice/hspice/parts/signet
       option search = /Tools/Synopsys/Hspice/hspice/parts/ti
       option search = /Tools/Synopsys/Hspice/hspice/parts/tline
       option search = /Tools/Synopsys/Hspice/hspice/parts/xilinx
       option runlvl
       option delmax =    1.000E-09
       option artist =     2.00
       option ingold =     2.00
       option parhier = local
       option psf =     2.00
 init: end read circuit files,  cpu clock=  1.22E+00 peak memory=       173 mb
 init: begin check errors,  cpu clock=  1.22E+00
 init: end check errors,  cpu clock=  1.22E+00 peak memory=       173 mb
 init: begin setup matrix, pivot=     0 cpu clock=  1.22E+00
       establish matrix -- done,  cpu clock=  1.22E+00 peak memory=       173 mb
       re-order matrix -- done,  cpu clock=  1.22E+00 peak memory=       173 mb
 init: end setup matrix,  cpu clock=  1.22E+00 peak memory=       173 mb
 dcop: begin dcop,  cpu clock=  1.22E+00
 dcop: end dcop,  cpu clock=  1.22E+00 peak memory=       173 mb  tot_iter=       6
 sweep: tran tran0    begin, stop_t=  2.00E-08 #sweeps= 201 cpu clock=  1.22E+00
 tran: time= 2.2052E-09 tot_iter=      10 conv_iter=       5 cpu clock= 1.22E+00
 tran: time= 4.2052E-09 tot_iter=      14 conv_iter=       7 cpu clock= 1.22E+00
 tran: time= 6.2052E-09 tot_iter=      18 conv_iter=       9 cpu clock= 1.22E+00
 tran: time= 8.2052E-09 tot_iter=      22 conv_iter=      11 cpu clock= 1.22E+00
 tran: time= 1.0000E-08 tot_iter=      26 conv_iter=      13 cpu clock= 1.22E+00
 tran: time= 1.2411E-08 tot_iter=     136 conv_iter=      52 cpu clock= 1.23E+00
 tran: time= 1.4411E-08 tot_iter=     141 conv_iter=      54 cpu clock= 1.23E+00
 tran: time= 1.6411E-08 tot_iter=     145 conv_iter=      56 cpu clock= 1.23E+00
 tran: time= 1.8411E-08 tot_iter=     149 conv_iter=      58 cpu clock= 1.23E+00
 tran: time= 2.0000E-08 tot_iter=     153 conv_iter=      60 cpu clock= 1.23E+00
 sweep: tran tran0    end,  cpu clock=  1.23E+00 peak memory=       173 mb
>info:         ***** hspice job concluded
 init: begin read circuit files,  cpu clock=  1.23E+00
       option search = /Tools/Synopsys/Hspice/hspice/parts/ad
       option search = /Tools/Synopsys/Hspice/hspice/parts/ad
       option search = /Tools/Synopsys/Hspice/hspice/parts/behave
       option search = /Tools/Synopsys/Hspice/hspice/parts/bjt
       option search = /Tools/Synopsys/Hspice/hspice/parts/burr_brn
       option search = /Tools/Synopsys/Hspice/hspice/parts/comlinear
       option search = /Tools/Synopsys/Hspice/hspice/parts/dio
       option search = /Tools/Synopsys/Hspice/hspice/parts/fet
       option search = /Tools/Synopsys/Hspice/hspice/parts/lin_tech
       option search = /Tools/Synopsys/Hspice/hspice/parts/pci
       option search = /Tools/Synopsys/Hspice/hspice/parts/signet
       option search = /Tools/Synopsys/Hspice/hspice/parts/ti
       option search = /Tools/Synopsys/Hspice/hspice/parts/tline
       option search = /Tools/Synopsys/Hspice/hspice/parts/xilinx
       option runlvl
       option delmax =    1.000E-09
       option artist =     2.00
       option ingold =     2.00
       option parhier = local
       option psf =     2.00
 init: end read circuit files,  cpu clock=  1.24E+00 peak memory=       173 mb
 init: begin check errors,  cpu clock=  1.24E+00
 init: end check errors,  cpu clock=  1.24E+00 peak memory=       173 mb
 init: begin setup matrix, pivot=     0 cpu clock=  1.24E+00
       establish matrix -- done,  cpu clock=  1.24E+00 peak memory=       173 mb
       re-order matrix -- done,  cpu clock=  1.24E+00 peak memory=       173 mb
 init: end setup matrix,  cpu clock=  1.24E+00 peak memory=       173 mb
 dcop: begin dcop,  cpu clock=  1.24E+00
 dcop: end dcop,  cpu clock=  1.24E+00 peak memory=       173 mb  tot_iter=       6
 sweep: tran tran0    begin, stop_t=  2.00E-08 #sweeps= 201 cpu clock=  1.24E+00
 tran: time= 2.2052E-09 tot_iter=      10 conv_iter=       5 cpu clock= 1.24E+00
 tran: time= 4.2052E-09 tot_iter=      14 conv_iter=       7 cpu clock= 1.24E+00
 tran: time= 6.2052E-09 tot_iter=      18 conv_iter=       9 cpu clock= 1.24E+00
 tran: time= 8.2052E-09 tot_iter=      22 conv_iter=      11 cpu clock= 1.24E+00
 tran: time= 1.0205E-08 tot_iter=      26 conv_iter=      13 cpu clock= 1.24E+00
 tran: time= 1.2205E-08 tot_iter=      30 conv_iter=      15 cpu clock= 1.24E+00
 tran: time= 1.4205E-08 tot_iter=      34 conv_iter=      17 cpu clock= 1.24E+00
 tran: time= 1.6205E-08 tot_iter=      38 conv_iter=      19 cpu clock= 1.24E+00
 tran: time= 1.8205E-08 tot_iter=      42 conv_iter=      21 cpu clock= 1.24E+00
 tran: time= 2.0000E-08 tot_iter=      46 conv_iter=      23 cpu clock= 1.24E+00
 sweep: tran tran0    end,  cpu clock=  1.24E+00 peak memory=       173 mb
>info:         ***** hspice job concluded
 init: begin read circuit files,  cpu clock=  1.25E+00
       option search = /Tools/Synopsys/Hspice/hspice/parts/ad
       option search = /Tools/Synopsys/Hspice/hspice/parts/ad
       option search = /Tools/Synopsys/Hspice/hspice/parts/behave
       option search = /Tools/Synopsys/Hspice/hspice/parts/bjt
       option search = /Tools/Synopsys/Hspice/hspice/parts/burr_brn
       option search = /Tools/Synopsys/Hspice/hspice/parts/comlinear
       option search = /Tools/Synopsys/Hspice/hspice/parts/dio
       option search = /Tools/Synopsys/Hspice/hspice/parts/fet
       option search = /Tools/Synopsys/Hspice/hspice/parts/lin_tech
       option search = /Tools/Synopsys/Hspice/hspice/parts/pci
       option search = /Tools/Synopsys/Hspice/hspice/parts/signet
       option search = /Tools/Synopsys/Hspice/hspice/parts/ti
       option search = /Tools/Synopsys/Hspice/hspice/parts/tline
       option search = /Tools/Synopsys/Hspice/hspice/parts/xilinx
       option runlvl
       option delmax =    1.000E-09
       option artist =     2.00
       option ingold =     2.00
       option parhier = local
       option psf =     2.00
 init: end read circuit files,  cpu clock=  1.25E+00 peak memory=       173 mb
 init: begin check errors,  cpu clock=  1.25E+00
 init: end check errors,  cpu clock=  1.25E+00 peak memory=       173 mb
 init: begin setup matrix, pivot=     0 cpu clock=  1.25E+00
       establish matrix -- done,  cpu clock=  1.25E+00 peak memory=       173 mb
       re-order matrix -- done,  cpu clock=  1.25E+00 peak memory=       173 mb
 init: end setup matrix,  cpu clock=  1.25E+00 peak memory=       173 mb
 dcop: begin dcop,  cpu clock=  1.25E+00
 dcop: end dcop,  cpu clock=  1.25E+00 peak memory=       173 mb  tot_iter=      10
 sweep: tran tran0    begin, stop_t=  2.00E-08 #sweeps= 201 cpu clock=  1.25E+00
 tran: time= 2.2052E-09 tot_iter=      10 conv_iter=       5 cpu clock= 1.25E+00
 tran: time= 4.2052E-09 tot_iter=      14 conv_iter=       7 cpu clock= 1.25E+00
 tran: time= 6.2052E-09 tot_iter=      18 conv_iter=       9 cpu clock= 1.25E+00
 tran: time= 8.2052E-09 tot_iter=      22 conv_iter=      11 cpu clock= 1.25E+00
 tran: time= 1.0000E-08 tot_iter=      26 conv_iter=      13 cpu clock= 1.25E+00
 tran: time= 1.2359E-08 tot_iter=     129 conv_iter=      48 cpu clock= 1.26E+00
 tran: time= 1.4443E-08 tot_iter=     137 conv_iter=      51 cpu clock= 1.26E+00
 tran: time= 1.6443E-08 tot_iter=     142 conv_iter=      53 cpu clock= 1.26E+00
 tran: time= 1.8443E-08 tot_iter=     147 conv_iter=      55 cpu clock= 1.26E+00
 tran: time= 2.0000E-08 tot_iter=     152 conv_iter=      57 cpu clock= 1.26E+00
 sweep: tran tran0    end,  cpu clock=  1.26E+00 peak memory=       173 mb
>info:         ***** hspice job concluded
 init: begin read circuit files,  cpu clock=  1.27E+00
       option search = /Tools/Synopsys/Hspice/hspice/parts/ad
       option search = /Tools/Synopsys/Hspice/hspice/parts/ad
       option search = /Tools/Synopsys/Hspice/hspice/parts/behave
       option search = /Tools/Synopsys/Hspice/hspice/parts/bjt
       option search = /Tools/Synopsys/Hspice/hspice/parts/burr_brn
       option search = /Tools/Synopsys/Hspice/hspice/parts/comlinear
       option search = /Tools/Synopsys/Hspice/hspice/parts/dio
       option search = /Tools/Synopsys/Hspice/hspice/parts/fet
       option search = /Tools/Synopsys/Hspice/hspice/parts/lin_tech
       option search = /Tools/Synopsys/Hspice/hspice/parts/pci
       option search = /Tools/Synopsys/Hspice/hspice/parts/signet
       option search = /Tools/Synopsys/Hspice/hspice/parts/ti
       option search = /Tools/Synopsys/Hspice/hspice/parts/tline
       option search = /Tools/Synopsys/Hspice/hspice/parts/xilinx
       option runlvl
       option delmax =    1.000E-09
       option artist =     2.00
       option ingold =     2.00
       option parhier = local
       option psf =     2.00
 init: end read circuit files,  cpu clock=  1.27E+00 peak memory=       173 mb
 init: begin check errors,  cpu clock=  1.27E+00
 init: end check errors,  cpu clock=  1.27E+00 peak memory=       173 mb
 init: begin setup matrix, pivot=     0 cpu clock=  1.27E+00
       establish matrix -- done,  cpu clock=  1.27E+00 peak memory=       173 mb
       re-order matrix -- done,  cpu clock=  1.27E+00 peak memory=       173 mb
 init: end setup matrix,  cpu clock=  1.27E+00 peak memory=       173 mb
 dcop: begin dcop,  cpu clock=  1.27E+00
 dcop: end dcop,  cpu clock=  1.27E+00 peak memory=       173 mb  tot_iter=      10
 sweep: tran tran0    begin, stop_t=  2.00E-08 #sweeps= 201 cpu clock=  1.27E+00
 tran: time= 2.2052E-09 tot_iter=      10 conv_iter=       5 cpu clock= 1.27E+00
 tran: time= 4.2052E-09 tot_iter=      14 conv_iter=       7 cpu clock= 1.27E+00
 tran: time= 6.2052E-09 tot_iter=      18 conv_iter=       9 cpu clock= 1.27E+00
 tran: time= 8.2052E-09 tot_iter=      22 conv_iter=      11 cpu clock= 1.27E+00
 tran: time= 1.0000E-08 tot_iter=      26 conv_iter=      13 cpu clock= 1.27E+00
 tran: time= 1.2175E-08 tot_iter=     133 conv_iter=      50 cpu clock= 1.28E+00
 tran: time= 1.4416E-08 tot_iter=     142 conv_iter=      53 cpu clock= 1.28E+00
 tran: time= 1.6416E-08 tot_iter=     147 conv_iter=      55 cpu clock= 1.28E+00
 tran: time= 1.8416E-08 tot_iter=     151 conv_iter=      57 cpu clock= 1.28E+00
 tran: time= 2.0000E-08 tot_iter=     155 conv_iter=      59 cpu clock= 1.28E+00
 sweep: tran tran0    end,  cpu clock=  1.28E+00 peak memory=       173 mb
>info:         ***** hspice job concluded
 init: begin read circuit files,  cpu clock=  1.29E+00
       option search = /Tools/Synopsys/Hspice/hspice/parts/ad
       option search = /Tools/Synopsys/Hspice/hspice/parts/ad
       option search = /Tools/Synopsys/Hspice/hspice/parts/behave
       option search = /Tools/Synopsys/Hspice/hspice/parts/bjt
       option search = /Tools/Synopsys/Hspice/hspice/parts/burr_brn
       option search = /Tools/Synopsys/Hspice/hspice/parts/comlinear
       option search = /Tools/Synopsys/Hspice/hspice/parts/dio
       option search = /Tools/Synopsys/Hspice/hspice/parts/fet
       option search = /Tools/Synopsys/Hspice/hspice/parts/lin_tech
       option search = /Tools/Synopsys/Hspice/hspice/parts/pci
       option search = /Tools/Synopsys/Hspice/hspice/parts/signet
       option search = /Tools/Synopsys/Hspice/hspice/parts/ti
       option search = /Tools/Synopsys/Hspice/hspice/parts/tline
       option search = /Tools/Synopsys/Hspice/hspice/parts/xilinx
       option runlvl
       option delmax =    1.000E-09
       option artist =     2.00
       option ingold =     2.00
       option parhier = local
       option psf =     2.00
 init: end read circuit files,  cpu clock=  1.29E+00 peak memory=       173 mb
 init: begin check errors,  cpu clock=  1.29E+00
 init: end check errors,  cpu clock=  1.29E+00 peak memory=       173 mb
 init: begin setup matrix, pivot=     0 cpu clock=  1.29E+00
       establish matrix -- done,  cpu clock=  1.29E+00 peak memory=       173 mb
       re-order matrix -- done,  cpu clock=  1.29E+00 peak memory=       173 mb
 init: end setup matrix,  cpu clock=  1.29E+00 peak memory=       173 mb
 dcop: begin dcop,  cpu clock=  1.29E+00
 dcop: end dcop,  cpu clock=  1.29E+00 peak memory=       173 mb  tot_iter=       9
 sweep: tran tran0    begin, stop_t=  2.00E-08 #sweeps= 201 cpu clock=  1.29E+00
 tran: time= 2.2052E-09 tot_iter=      10 conv_iter=       5 cpu clock= 1.29E+00
 tran: time= 4.2052E-09 tot_iter=      14 conv_iter=       7 cpu clock= 1.29E+00
 tran: time= 6.2052E-09 tot_iter=      18 conv_iter=       9 cpu clock= 1.29E+00
 tran: time= 8.2052E-09 tot_iter=      22 conv_iter=      11 cpu clock= 1.29E+00
 tran: time= 1.0000E-08 tot_iter=      26 conv_iter=      13 cpu clock= 1.29E+00
 tran: time= 1.2161E-08 tot_iter=     107 conv_iter=      43 cpu clock= 1.30E+00
 tran: time= 1.4161E-08 tot_iter=     111 conv_iter=      45 cpu clock= 1.30E+00
 tran: time= 1.6161E-08 tot_iter=     115 conv_iter=      47 cpu clock= 1.30E+00
 tran: time= 1.8161E-08 tot_iter=     119 conv_iter=      49 cpu clock= 1.30E+00
 tran: time= 2.0000E-08 tot_iter=     123 conv_iter=      51 cpu clock= 1.30E+00
 sweep: tran tran0    end,  cpu clock=  1.30E+00 peak memory=       173 mb
>info:         ***** hspice job concluded
 init: begin read circuit files,  cpu clock=  1.30E+00
       option search = /Tools/Synopsys/Hspice/hspice/parts/ad
       option search = /Tools/Synopsys/Hspice/hspice/parts/ad
       option search = /Tools/Synopsys/Hspice/hspice/parts/behave
       option search = /Tools/Synopsys/Hspice/hspice/parts/bjt
       option search = /Tools/Synopsys/Hspice/hspice/parts/burr_brn
       option search = /Tools/Synopsys/Hspice/hspice/parts/comlinear
       option search = /Tools/Synopsys/Hspice/hspice/parts/dio
       option search = /Tools/Synopsys/Hspice/hspice/parts/fet
       option search = /Tools/Synopsys/Hspice/hspice/parts/lin_tech
       option search = /Tools/Synopsys/Hspice/hspice/parts/pci
       option search = /Tools/Synopsys/Hspice/hspice/parts/signet
       option search = /Tools/Synopsys/Hspice/hspice/parts/ti
       option search = /Tools/Synopsys/Hspice/hspice/parts/tline
       option search = /Tools/Synopsys/Hspice/hspice/parts/xilinx
       option runlvl
       option delmax =    1.000E-09
       option artist =     2.00
       option ingold =     2.00
       option parhier = local
       option psf =     2.00
 init: end read circuit files,  cpu clock=  1.31E+00 peak memory=       173 mb
 init: begin check errors,  cpu clock=  1.31E+00
 init: end check errors,  cpu clock=  1.31E+00 peak memory=       173 mb
 init: begin setup matrix, pivot=     0 cpu clock=  1.31E+00
       establish matrix -- done,  cpu clock=  1.31E+00 peak memory=       173 mb
       re-order matrix -- done,  cpu clock=  1.31E+00 peak memory=       173 mb
 init: end setup matrix,  cpu clock=  1.31E+00 peak memory=       173 mb
 dcop: begin dcop,  cpu clock=  1.31E+00
 dcop: end dcop,  cpu clock=  1.31E+00 peak memory=       173 mb  tot_iter=       9
 sweep: tran tran0    begin, stop_t=  2.00E-08 #sweeps= 201 cpu clock=  1.31E+00
 tran: time= 2.2052E-09 tot_iter=      10 conv_iter=       5 cpu clock= 1.31E+00
 tran: time= 4.2052E-09 tot_iter=      14 conv_iter=       7 cpu clock= 1.31E+00
 tran: time= 6.2052E-09 tot_iter=      18 conv_iter=       9 cpu clock= 1.31E+00
 tran: time= 8.2052E-09 tot_iter=      22 conv_iter=      11 cpu clock= 1.31E+00
 tran: time= 1.0000E-08 tot_iter=      26 conv_iter=      13 cpu clock= 1.31E+00
 tran: time= 1.2201E-08 tot_iter=     145 conv_iter=      54 cpu clock= 1.32E+00
 tran: time= 1.4063E-08 tot_iter=     154 conv_iter=      57 cpu clock= 1.32E+00
 tran: time= 1.6032E-08 tot_iter=     159 conv_iter=      59 cpu clock= 1.32E+00
 tran: time= 1.8032E-08 tot_iter=     164 conv_iter=      61 cpu clock= 1.32E+00
 tran: time= 2.0000E-08 tot_iter=     169 conv_iter=      63 cpu clock= 1.32E+00
 sweep: tran tran0    end,  cpu clock=  1.32E+00 peak memory=       173 mb
>info:         ***** hspice job concluded
 init: begin read circuit files,  cpu clock=  1.33E+00
       option search = /Tools/Synopsys/Hspice/hspice/parts/ad
       option search = /Tools/Synopsys/Hspice/hspice/parts/ad
       option search = /Tools/Synopsys/Hspice/hspice/parts/behave
       option search = /Tools/Synopsys/Hspice/hspice/parts/bjt
       option search = /Tools/Synopsys/Hspice/hspice/parts/burr_brn
       option search = /Tools/Synopsys/Hspice/hspice/parts/comlinear
       option search = /Tools/Synopsys/Hspice/hspice/parts/dio
       option search = /Tools/Synopsys/Hspice/hspice/parts/fet
       option search = /Tools/Synopsys/Hspice/hspice/parts/lin_tech
       option search = /Tools/Synopsys/Hspice/hspice/parts/pci
       option search = /Tools/Synopsys/Hspice/hspice/parts/signet
       option search = /Tools/Synopsys/Hspice/hspice/parts/ti
       option search = /Tools/Synopsys/Hspice/hspice/parts/tline
       option search = /Tools/Synopsys/Hspice/hspice/parts/xilinx
       option runlvl
       option delmax =    1.000E-09
       option artist =     2.00
       option ingold =     2.00
       option parhier = local
       option psf =     2.00
 init: end read circuit files,  cpu clock=  1.33E+00 peak memory=       173 mb
 init: begin check errors,  cpu clock=  1.33E+00
 init: end check errors,  cpu clock=  1.33E+00 peak memory=       173 mb
 init: begin setup matrix, pivot=     0 cpu clock=  1.33E+00
       establish matrix -- done,  cpu clock=  1.33E+00 peak memory=       173 mb
       re-order matrix -- done,  cpu clock=  1.33E+00 peak memory=       173 mb
 init: end setup matrix,  cpu clock=  1.33E+00 peak memory=       173 mb
 dcop: begin dcop,  cpu clock=  1.33E+00
 dcop: end dcop,  cpu clock=  1.33E+00 peak memory=       173 mb  tot_iter=      10
 sweep: tran tran0    begin, stop_t=  2.00E-08 #sweeps= 201 cpu clock=  1.33E+00
 tran: time= 2.2052E-09 tot_iter=      10 conv_iter=       5 cpu clock= 1.33E+00
 tran: time= 4.2052E-09 tot_iter=      14 conv_iter=       7 cpu clock= 1.33E+00
 tran: time= 6.2052E-09 tot_iter=      18 conv_iter=       9 cpu clock= 1.33E+00
 tran: time= 8.2052E-09 tot_iter=      22 conv_iter=      11 cpu clock= 1.33E+00
 tran: time= 1.0000E-08 tot_iter=      26 conv_iter=      13 cpu clock= 1.33E+00
 tran: time= 1.2829E-08 tot_iter=     109 conv_iter=      46 cpu clock= 1.34E+00
 tran: time= 1.4829E-08 tot_iter=     113 conv_iter=      48 cpu clock= 1.34E+00
 tran: time= 1.6829E-08 tot_iter=     117 conv_iter=      50 cpu clock= 1.34E+00
 tran: time= 1.8829E-08 tot_iter=     121 conv_iter=      52 cpu clock= 1.34E+00
 tran: time= 2.0000E-08 tot_iter=     125 conv_iter=      54 cpu clock= 1.34E+00
 sweep: tran tran0    end,  cpu clock=  1.34E+00 peak memory=       173 mb
>info:         ***** hspice job concluded
 init: begin read circuit files,  cpu clock=  1.34E+00
       option search = /Tools/Synopsys/Hspice/hspice/parts/ad
       option search = /Tools/Synopsys/Hspice/hspice/parts/ad
       option search = /Tools/Synopsys/Hspice/hspice/parts/behave
       option search = /Tools/Synopsys/Hspice/hspice/parts/bjt
       option search = /Tools/Synopsys/Hspice/hspice/parts/burr_brn
       option search = /Tools/Synopsys/Hspice/hspice/parts/comlinear
       option search = /Tools/Synopsys/Hspice/hspice/parts/dio
       option search = /Tools/Synopsys/Hspice/hspice/parts/fet
       option search = /Tools/Synopsys/Hspice/hspice/parts/lin_tech
       option search = /Tools/Synopsys/Hspice/hspice/parts/pci
       option search = /Tools/Synopsys/Hspice/hspice/parts/signet
       option search = /Tools/Synopsys/Hspice/hspice/parts/ti
       option search = /Tools/Synopsys/Hspice/hspice/parts/tline
       option search = /Tools/Synopsys/Hspice/hspice/parts/xilinx
       option runlvl
       option delmax =    1.000E-09
       option artist =     2.00
       option ingold =     2.00
       option parhier = local
       option psf =     2.00
 init: end read circuit files,  cpu clock=  1.35E+00 peak memory=       173 mb
 init: begin check errors,  cpu clock=  1.35E+00
 init: end check errors,  cpu clock=  1.35E+00 peak memory=       173 mb
 init: begin setup matrix, pivot=     0 cpu clock=  1.35E+00
       establish matrix -- done,  cpu clock=  1.35E+00 peak memory=       173 mb
       re-order matrix -- done,  cpu clock=  1.35E+00 peak memory=       173 mb
 init: end setup matrix,  cpu clock=  1.35E+00 peak memory=       173 mb
 dcop: begin dcop,  cpu clock=  1.35E+00
 dcop: end dcop,  cpu clock=  1.35E+00 peak memory=       173 mb  tot_iter=      10
 sweep: tran tran0    begin, stop_t=  2.00E-08 #sweeps= 201 cpu clock=  1.35E+00
 tran: time= 2.2052E-09 tot_iter=      10 conv_iter=       5 cpu clock= 1.35E+00
 tran: time= 4.2052E-09 tot_iter=      14 conv_iter=       7 cpu clock= 1.35E+00
 tran: time= 6.2052E-09 tot_iter=      18 conv_iter=       9 cpu clock= 1.35E+00
 tran: time= 8.2052E-09 tot_iter=      22 conv_iter=      11 cpu clock= 1.35E+00
 tran: time= 1.0000E-08 tot_iter=      26 conv_iter=      13 cpu clock= 1.35E+00
 tran: time= 1.2994E-08 tot_iter=     112 conv_iter=      46 cpu clock= 1.36E+00
 tran: time= 1.4994E-08 tot_iter=     116 conv_iter=      48 cpu clock= 1.36E+00
 tran: time= 1.6994E-08 tot_iter=     120 conv_iter=      50 cpu clock= 1.36E+00
 tran: time= 1.8994E-08 tot_iter=     124 conv_iter=      52 cpu clock= 1.36E+00
 tran: time= 2.0000E-08 tot_iter=     126 conv_iter=      53 cpu clock= 1.36E+00
 sweep: tran tran0    end,  cpu clock=  1.36E+00 peak memory=       173 mb
>info:         ***** hspice job concluded
 init: begin read circuit files,  cpu clock=  1.36E+00
       option search = /Tools/Synopsys/Hspice/hspice/parts/ad
       option search = /Tools/Synopsys/Hspice/hspice/parts/ad
       option search = /Tools/Synopsys/Hspice/hspice/parts/behave
       option search = /Tools/Synopsys/Hspice/hspice/parts/bjt
       option search = /Tools/Synopsys/Hspice/hspice/parts/burr_brn
       option search = /Tools/Synopsys/Hspice/hspice/parts/comlinear
       option search = /Tools/Synopsys/Hspice/hspice/parts/dio
       option search = /Tools/Synopsys/Hspice/hspice/parts/fet
       option search = /Tools/Synopsys/Hspice/hspice/parts/lin_tech
       option search = /Tools/Synopsys/Hspice/hspice/parts/pci
       option search = /Tools/Synopsys/Hspice/hspice/parts/signet
       option search = /Tools/Synopsys/Hspice/hspice/parts/ti
       option search = /Tools/Synopsys/Hspice/hspice/parts/tline
       option search = /Tools/Synopsys/Hspice/hspice/parts/xilinx
       option runlvl
       option delmax =    1.000E-09
       option artist =     2.00
       option ingold =     2.00
       option parhier = local
       option psf =     2.00
 init: end read circuit files,  cpu clock=  1.36E+00 peak memory=       173 mb
 init: begin check errors,  cpu clock=  1.36E+00
 init: end check errors,  cpu clock=  1.37E+00 peak memory=       173 mb
 init: begin setup matrix, pivot=     0 cpu clock=  1.37E+00
       establish matrix -- done,  cpu clock=  1.37E+00 peak memory=       173 mb
       re-order matrix -- done,  cpu clock=  1.37E+00 peak memory=       173 mb
 init: end setup matrix,  cpu clock=  1.37E+00 peak memory=       173 mb
 dcop: begin dcop,  cpu clock=  1.37E+00
 dcop: end dcop,  cpu clock=  1.37E+00 peak memory=       173 mb  tot_iter=       9
 sweep: tran tran0    begin, stop_t=  2.00E-08 #sweeps= 201 cpu clock=  1.37E+00
 tran: time= 2.2052E-09 tot_iter=      10 conv_iter=       5 cpu clock= 1.37E+00
 tran: time= 4.2052E-09 tot_iter=      14 conv_iter=       7 cpu clock= 1.37E+00
 tran: time= 6.2052E-09 tot_iter=      18 conv_iter=       9 cpu clock= 1.37E+00
 tran: time= 8.2052E-09 tot_iter=      22 conv_iter=      11 cpu clock= 1.37E+00
 tran: time= 1.0000E-08 tot_iter=      26 conv_iter=      13 cpu clock= 1.37E+00
 tran: time= 1.2332E-08 tot_iter=     139 conv_iter=      53 cpu clock= 1.38E+00
 tran: time= 1.4332E-08 tot_iter=     144 conv_iter=      55 cpu clock= 1.38E+00
 tran: time= 1.6332E-08 tot_iter=     148 conv_iter=      57 cpu clock= 1.38E+00
 tran: time= 1.8332E-08 tot_iter=     152 conv_iter=      59 cpu clock= 1.38E+00
 tran: time= 2.0000E-08 tot_iter=     156 conv_iter=      61 cpu clock= 1.38E+00
 sweep: tran tran0    end,  cpu clock=  1.38E+00 peak memory=       173 mb
>info:         ***** hspice job concluded
 init: begin read circuit files,  cpu clock=  1.38E+00
       option search = /Tools/Synopsys/Hspice/hspice/parts/ad
       option search = /Tools/Synopsys/Hspice/hspice/parts/ad
       option search = /Tools/Synopsys/Hspice/hspice/parts/behave
       option search = /Tools/Synopsys/Hspice/hspice/parts/bjt
       option search = /Tools/Synopsys/Hspice/hspice/parts/burr_brn
       option search = /Tools/Synopsys/Hspice/hspice/parts/comlinear
       option search = /Tools/Synopsys/Hspice/hspice/parts/dio
       option search = /Tools/Synopsys/Hspice/hspice/parts/fet
       option search = /Tools/Synopsys/Hspice/hspice/parts/lin_tech
       option search = /Tools/Synopsys/Hspice/hspice/parts/pci
       option search = /Tools/Synopsys/Hspice/hspice/parts/signet
       option search = /Tools/Synopsys/Hspice/hspice/parts/ti
       option search = /Tools/Synopsys/Hspice/hspice/parts/tline
       option search = /Tools/Synopsys/Hspice/hspice/parts/xilinx
       option runlvl
       option delmax =    1.000E-09
       option artist =     2.00
       option ingold =     2.00
       option parhier = local
       option psf =     2.00
 init: end read circuit files,  cpu clock=  1.38E+00 peak memory=       173 mb
 init: begin check errors,  cpu clock=  1.38E+00
 init: end check errors,  cpu clock=  1.39E+00 peak memory=       173 mb
 init: begin setup matrix, pivot=     0 cpu clock=  1.39E+00
       establish matrix -- done,  cpu clock=  1.39E+00 peak memory=       173 mb
       re-order matrix -- done,  cpu clock=  1.39E+00 peak memory=       173 mb
 init: end setup matrix,  cpu clock=  1.39E+00 peak memory=       173 mb
 dcop: begin dcop,  cpu clock=  1.39E+00
 dcop: end dcop,  cpu clock=  1.39E+00 peak memory=       173 mb  tot_iter=       9
 sweep: tran tran0    begin, stop_t=  2.00E-08 #sweeps= 201 cpu clock=  1.39E+00
 tran: time= 2.2052E-09 tot_iter=      10 conv_iter=       5 cpu clock= 1.39E+00
 tran: time= 4.2052E-09 tot_iter=      14 conv_iter=       7 cpu clock= 1.39E+00
 tran: time= 6.2052E-09 tot_iter=      18 conv_iter=       9 cpu clock= 1.39E+00
 tran: time= 8.2052E-09 tot_iter=      22 conv_iter=      11 cpu clock= 1.39E+00
 tran: time= 1.0000E-08 tot_iter=      26 conv_iter=      13 cpu clock= 1.39E+00
 tran: time= 1.2505E-08 tot_iter=     103 conv_iter=      44 cpu clock= 1.39E+00
 tran: time= 1.4505E-08 tot_iter=     107 conv_iter=      46 cpu clock= 1.39E+00
 tran: time= 1.6505E-08 tot_iter=     111 conv_iter=      48 cpu clock= 1.40E+00
 tran: time= 1.8505E-08 tot_iter=     115 conv_iter=      50 cpu clock= 1.40E+00
 tran: time= 2.0000E-08 tot_iter=     119 conv_iter=      52 cpu clock= 1.40E+00
 sweep: tran tran0    end,  cpu clock=  1.40E+00 peak memory=       173 mb
>info:         ***** hspice job concluded
 init: begin read circuit files,  cpu clock=  1.40E+00
       option search = /Tools/Synopsys/Hspice/hspice/parts/ad
       option search = /Tools/Synopsys/Hspice/hspice/parts/ad
       option search = /Tools/Synopsys/Hspice/hspice/parts/behave
       option search = /Tools/Synopsys/Hspice/hspice/parts/bjt
       option search = /Tools/Synopsys/Hspice/hspice/parts/burr_brn
       option search = /Tools/Synopsys/Hspice/hspice/parts/comlinear
       option search = /Tools/Synopsys/Hspice/hspice/parts/dio
       option search = /Tools/Synopsys/Hspice/hspice/parts/fet
       option search = /Tools/Synopsys/Hspice/hspice/parts/lin_tech
       option search = /Tools/Synopsys/Hspice/hspice/parts/pci
       option search = /Tools/Synopsys/Hspice/hspice/parts/signet
       option search = /Tools/Synopsys/Hspice/hspice/parts/ti
       option search = /Tools/Synopsys/Hspice/hspice/parts/tline
       option search = /Tools/Synopsys/Hspice/hspice/parts/xilinx
       option runlvl
       option delmax =    1.000E-09
       option artist =     2.00
       option ingold =     2.00
       option parhier = local
       option psf =     2.00
 init: end read circuit files,  cpu clock=  1.40E+00 peak memory=       173 mb
 init: begin check errors,  cpu clock=  1.40E+00
 init: end check errors,  cpu clock=  1.40E+00 peak memory=       173 mb
 init: begin setup matrix, pivot=     0 cpu clock=  1.40E+00
       establish matrix -- done,  cpu clock=  1.40E+00 peak memory=       173 mb
       re-order matrix -- done,  cpu clock=  1.40E+00 peak memory=       173 mb
 init: end setup matrix,  cpu clock=  1.40E+00 peak memory=       173 mb
 dcop: begin dcop,  cpu clock=  1.41E+00
 dcop: end dcop,  cpu clock=  1.41E+00 peak memory=       173 mb  tot_iter=       9
 sweep: tran tran0    begin, stop_t=  2.00E-08 #sweeps= 201 cpu clock=  1.41E+00
 tran: time= 2.2052E-09 tot_iter=      10 conv_iter=       5 cpu clock= 1.41E+00
 tran: time= 4.2052E-09 tot_iter=      14 conv_iter=       7 cpu clock= 1.41E+00
 tran: time= 6.2052E-09 tot_iter=      18 conv_iter=       9 cpu clock= 1.41E+00
 tran: time= 8.2052E-09 tot_iter=      22 conv_iter=      11 cpu clock= 1.41E+00
 tran: time= 1.0000E-08 tot_iter=      26 conv_iter=      13 cpu clock= 1.41E+00
 tran: time= 1.2949E-08 tot_iter=      88 conv_iter=      37 cpu clock= 1.41E+00
 tran: time= 1.4949E-08 tot_iter=      92 conv_iter=      39 cpu clock= 1.41E+00
 tran: time= 1.6949E-08 tot_iter=      96 conv_iter=      41 cpu clock= 1.41E+00
 tran: time= 1.8949E-08 tot_iter=     100 conv_iter=      43 cpu clock= 1.41E+00
 tran: time= 2.0000E-08 tot_iter=     102 conv_iter=      44 cpu clock= 1.41E+00
 sweep: tran tran0    end,  cpu clock=  1.41E+00 peak memory=       173 mb
>info:         ***** hspice job concluded
 init: begin read circuit files,  cpu clock=  1.42E+00
       option search = /Tools/Synopsys/Hspice/hspice/parts/ad
       option search = /Tools/Synopsys/Hspice/hspice/parts/ad
       option search = /Tools/Synopsys/Hspice/hspice/parts/behave
       option search = /Tools/Synopsys/Hspice/hspice/parts/bjt
       option search = /Tools/Synopsys/Hspice/hspice/parts/burr_brn
       option search = /Tools/Synopsys/Hspice/hspice/parts/comlinear
       option search = /Tools/Synopsys/Hspice/hspice/parts/dio
       option search = /Tools/Synopsys/Hspice/hspice/parts/fet
       option search = /Tools/Synopsys/Hspice/hspice/parts/lin_tech
       option search = /Tools/Synopsys/Hspice/hspice/parts/pci
       option search = /Tools/Synopsys/Hspice/hspice/parts/signet
       option search = /Tools/Synopsys/Hspice/hspice/parts/ti
       option search = /Tools/Synopsys/Hspice/hspice/parts/tline
       option search = /Tools/Synopsys/Hspice/hspice/parts/xilinx
       option runlvl
       option delmax =    1.000E-09
       option artist =     2.00
       option ingold =     2.00
       option parhier = local
       option psf =     2.00
 init: end read circuit files,  cpu clock=  1.42E+00 peak memory=       173 mb
 init: begin check errors,  cpu clock=  1.42E+00
 init: end check errors,  cpu clock=  1.42E+00 peak memory=       173 mb
 init: begin setup matrix, pivot=     0 cpu clock=  1.42E+00
       establish matrix -- done,  cpu clock=  1.42E+00 peak memory=       173 mb
       re-order matrix -- done,  cpu clock=  1.42E+00 peak memory=       173 mb
 init: end setup matrix,  cpu clock=  1.42E+00 peak memory=       173 mb
 dcop: begin dcop,  cpu clock=  1.42E+00
 dcop: end dcop,  cpu clock=  1.42E+00 peak memory=       173 mb  tot_iter=       9
 sweep: tran tran0    begin, stop_t=  2.00E-08 #sweeps= 201 cpu clock=  1.42E+00
 tran: time= 2.2052E-09 tot_iter=      10 conv_iter=       5 cpu clock= 1.42E+00
 tran: time= 4.2052E-09 tot_iter=      14 conv_iter=       7 cpu clock= 1.42E+00
 tran: time= 6.2052E-09 tot_iter=      18 conv_iter=       9 cpu clock= 1.42E+00
 tran: time= 8.2052E-09 tot_iter=      22 conv_iter=      11 cpu clock= 1.42E+00
 tran: time= 1.0000E-08 tot_iter=      26 conv_iter=      13 cpu clock= 1.42E+00
 tran: time= 1.2364E-08 tot_iter=     132 conv_iter=      50 cpu clock= 1.43E+00
 tran: time= 1.4364E-08 tot_iter=     137 conv_iter=      52 cpu clock= 1.43E+00
 tran: time= 1.6364E-08 tot_iter=     141 conv_iter=      54 cpu clock= 1.43E+00
 tran: time= 1.8364E-08 tot_iter=     145 conv_iter=      56 cpu clock= 1.43E+00
 tran: time= 2.0000E-08 tot_iter=     149 conv_iter=      58 cpu clock= 1.43E+00
 sweep: tran tran0    end,  cpu clock=  1.43E+00 peak memory=       173 mb
>info:         ***** hspice job concluded
 init: begin read circuit files,  cpu clock=  1.44E+00
       option search = /Tools/Synopsys/Hspice/hspice/parts/ad
       option search = /Tools/Synopsys/Hspice/hspice/parts/ad
       option search = /Tools/Synopsys/Hspice/hspice/parts/behave
       option search = /Tools/Synopsys/Hspice/hspice/parts/bjt
       option search = /Tools/Synopsys/Hspice/hspice/parts/burr_brn
       option search = /Tools/Synopsys/Hspice/hspice/parts/comlinear
       option search = /Tools/Synopsys/Hspice/hspice/parts/dio
       option search = /Tools/Synopsys/Hspice/hspice/parts/fet
       option search = /Tools/Synopsys/Hspice/hspice/parts/lin_tech
       option search = /Tools/Synopsys/Hspice/hspice/parts/pci
       option search = /Tools/Synopsys/Hspice/hspice/parts/signet
       option search = /Tools/Synopsys/Hspice/hspice/parts/ti
       option search = /Tools/Synopsys/Hspice/hspice/parts/tline
       option search = /Tools/Synopsys/Hspice/hspice/parts/xilinx
       option runlvl
       option delmax =    1.000E-09
       option artist =     2.00
       option ingold =     2.00
       option parhier = local
       option psf =     2.00
 init: end read circuit files,  cpu clock=  1.44E+00 peak memory=       173 mb
 init: begin check errors,  cpu clock=  1.44E+00
 init: end check errors,  cpu clock=  1.44E+00 peak memory=       173 mb
 init: begin setup matrix, pivot=     0 cpu clock=  1.44E+00
       establish matrix -- done,  cpu clock=  1.44E+00 peak memory=       173 mb
       re-order matrix -- done,  cpu clock=  1.44E+00 peak memory=       173 mb
 init: end setup matrix,  cpu clock=  1.44E+00 peak memory=       173 mb
 dcop: begin dcop,  cpu clock=  1.44E+00
 dcop: end dcop,  cpu clock=  1.44E+00 peak memory=       173 mb  tot_iter=       6
 sweep: tran tran0    begin, stop_t=  2.00E-08 #sweeps= 201 cpu clock=  1.44E+00
 tran: time= 2.2052E-09 tot_iter=      10 conv_iter=       5 cpu clock= 1.44E+00
 tran: time= 4.2052E-09 tot_iter=      14 conv_iter=       7 cpu clock= 1.44E+00
 tran: time= 6.2052E-09 tot_iter=      18 conv_iter=       9 cpu clock= 1.44E+00
 tran: time= 8.2052E-09 tot_iter=      22 conv_iter=      11 cpu clock= 1.44E+00
 tran: time= 1.0000E-08 tot_iter=      26 conv_iter=      13 cpu clock= 1.44E+00
 tran: time= 1.2790E-08 tot_iter=     143 conv_iter=      55 cpu clock= 1.45E+00
 tran: time= 1.4790E-08 tot_iter=     147 conv_iter=      57 cpu clock= 1.45E+00
 tran: time= 1.6790E-08 tot_iter=     151 conv_iter=      59 cpu clock= 1.45E+00
 tran: time= 1.8790E-08 tot_iter=     155 conv_iter=      61 cpu clock= 1.45E+00
 tran: time= 2.0000E-08 tot_iter=     159 conv_iter=      63 cpu clock= 1.45E+00
 sweep: tran tran0    end,  cpu clock=  1.45E+00 peak memory=       173 mb
>info:         ***** hspice job concluded
 init: begin read circuit files,  cpu clock=  1.46E+00
       option search = /Tools/Synopsys/Hspice/hspice/parts/ad
       option search = /Tools/Synopsys/Hspice/hspice/parts/ad
       option search = /Tools/Synopsys/Hspice/hspice/parts/behave
       option search = /Tools/Synopsys/Hspice/hspice/parts/bjt
       option search = /Tools/Synopsys/Hspice/hspice/parts/burr_brn
       option search = /Tools/Synopsys/Hspice/hspice/parts/comlinear
       option search = /Tools/Synopsys/Hspice/hspice/parts/dio
       option search = /Tools/Synopsys/Hspice/hspice/parts/fet
       option search = /Tools/Synopsys/Hspice/hspice/parts/lin_tech
       option search = /Tools/Synopsys/Hspice/hspice/parts/pci
       option search = /Tools/Synopsys/Hspice/hspice/parts/signet
       option search = /Tools/Synopsys/Hspice/hspice/parts/ti
       option search = /Tools/Synopsys/Hspice/hspice/parts/tline
       option search = /Tools/Synopsys/Hspice/hspice/parts/xilinx
       option runlvl
       option delmax =    1.000E-09
       option artist =     2.00
       option ingold =     2.00
       option parhier = local
       option psf =     2.00
 init: end read circuit files,  cpu clock=  1.46E+00 peak memory=       173 mb
 init: begin check errors,  cpu clock=  1.46E+00
 init: end check errors,  cpu clock=  1.46E+00 peak memory=       173 mb
 init: begin setup matrix, pivot=     0 cpu clock=  1.46E+00
       establish matrix -- done,  cpu clock=  1.46E+00 peak memory=       173 mb
       re-order matrix -- done,  cpu clock=  1.46E+00 peak memory=       173 mb
 init: end setup matrix,  cpu clock=  1.46E+00 peak memory=       173 mb
 dcop: begin dcop,  cpu clock=  1.46E+00
 dcop: end dcop,  cpu clock=  1.46E+00 peak memory=       173 mb  tot_iter=       6
 sweep: tran tran0    begin, stop_t=  2.00E-08 #sweeps= 201 cpu clock=  1.46E+00
 tran: time= 2.2052E-09 tot_iter=      10 conv_iter=       5 cpu clock= 1.46E+00
 tran: time= 4.2052E-09 tot_iter=      14 conv_iter=       7 cpu clock= 1.46E+00
 tran: time= 6.2052E-09 tot_iter=      18 conv_iter=       9 cpu clock= 1.46E+00
 tran: time= 8.2052E-09 tot_iter=      22 conv_iter=      11 cpu clock= 1.46E+00
 tran: time= 1.0000E-08 tot_iter=      26 conv_iter=      13 cpu clock= 1.46E+00
 tran: time= 1.2076E-08 tot_iter=      88 conv_iter=      37 cpu clock= 1.47E+00
 tran: time= 1.4076E-08 tot_iter=      93 conv_iter=      39 cpu clock= 1.47E+00
 tran: time= 1.6076E-08 tot_iter=      97 conv_iter=      41 cpu clock= 1.47E+00
 tran: time= 1.8076E-08 tot_iter=     101 conv_iter=      43 cpu clock= 1.47E+00
 tran: time= 2.0000E-08 tot_iter=     105 conv_iter=      45 cpu clock= 1.47E+00
 sweep: tran tran0    end,  cpu clock=  1.47E+00 peak memory=       173 mb
>info:         ***** hspice job concluded
 init: begin read circuit files,  cpu clock=  1.47E+00
       option search = /Tools/Synopsys/Hspice/hspice/parts/ad
       option search = /Tools/Synopsys/Hspice/hspice/parts/ad
       option search = /Tools/Synopsys/Hspice/hspice/parts/behave
       option search = /Tools/Synopsys/Hspice/hspice/parts/bjt
       option search = /Tools/Synopsys/Hspice/hspice/parts/burr_brn
       option search = /Tools/Synopsys/Hspice/hspice/parts/comlinear
       option search = /Tools/Synopsys/Hspice/hspice/parts/dio
       option search = /Tools/Synopsys/Hspice/hspice/parts/fet
       option search = /Tools/Synopsys/Hspice/hspice/parts/lin_tech
       option search = /Tools/Synopsys/Hspice/hspice/parts/pci
       option search = /Tools/Synopsys/Hspice/hspice/parts/signet
       option search = /Tools/Synopsys/Hspice/hspice/parts/ti
       option search = /Tools/Synopsys/Hspice/hspice/parts/tline
       option search = /Tools/Synopsys/Hspice/hspice/parts/xilinx
       option runlvl
       option delmax =    1.000E-09
       option artist =     2.00
       option ingold =     2.00
       option parhier = local
       option psf =     2.00
 init: end read circuit files,  cpu clock=  1.47E+00 peak memory=       173 mb
 init: begin check errors,  cpu clock=  1.47E+00
 init: end check errors,  cpu clock=  1.48E+00 peak memory=       173 mb
 init: begin setup matrix, pivot=     0 cpu clock=  1.48E+00
       establish matrix -- done,  cpu clock=  1.48E+00 peak memory=       173 mb
       re-order matrix -- done,  cpu clock=  1.48E+00 peak memory=       173 mb
 init: end setup matrix,  cpu clock=  1.48E+00 peak memory=       173 mb
 dcop: begin dcop,  cpu clock=  1.48E+00
 dcop: end dcop,  cpu clock=  1.48E+00 peak memory=       173 mb  tot_iter=       9
 sweep: tran tran0    begin, stop_t=  2.00E-08 #sweeps= 201 cpu clock=  1.48E+00
 tran: time= 2.2052E-09 tot_iter=      10 conv_iter=       5 cpu clock= 1.48E+00
[...]
 tran: time= 1.2412E-08 tot_iter=     145 conv_iter=      54 cpu clock= 2.01E+00
 tran: time= 1.4937E-08 tot_iter=     154 conv_iter=      57 cpu clock= 2.01E+00
 tran: time= 1.6937E-08 tot_iter=     158 conv_iter=      59 cpu clock= 2.01E+00
 tran: time= 1.8937E-08 tot_iter=     162 conv_iter=      61 cpu clock= 2.01E+00
 tran: time= 2.0000E-08 tot_iter=     164 conv_iter=      62 cpu clock= 2.01E+00
 sweep: tran tran0    end,  cpu clock=  2.01E+00 peak memory=       173 mb
>info:         ***** hspice job concluded
 init: begin read circuit files,  cpu clock=  2.01E+00
       option search = /Tools/Synopsys/Hspice/hspice/parts/ad
       option search = /Tools/Synopsys/Hspice/hspice/parts/ad
       option search = /Tools/Synopsys/Hspice/hspice/parts/behave
       option search = /Tools/Synopsys/Hspice/hspice/parts/bjt
       option search = /Tools/Synopsys/Hspice/hspice/parts/burr_brn
       option search = /Tools/Synopsys/Hspice/hspice/parts/comlinear
       option search = /Tools/Synopsys/Hspice/hspice/parts/dio
       option search = /Tools/Synopsys/Hspice/hspice/parts/fet
       option search = /Tools/Synopsys/Hspice/hspice/parts/lin_tech
       option search = /Tools/Synopsys/Hspice/hspice/parts/pci
       option search = /Tools/Synopsys/Hspice/hspice/parts/signet
       option search = /Tools/Synopsys/Hspice/hspice/parts/ti
       option search = /Tools/Synopsys/Hspice/hspice/parts/tline
       option search = /Tools/Synopsys/Hspice/hspice/parts/xilinx
       option runlvl
       option delmax =    1.000E-09
       option artist =     2.00
       option ingold =     2.00
       option parhier = local
       option psf =     2.00
 init: end read circuit files,  cpu clock=  2.01E+00 peak memory=       173 mb
 init: begin check errors,  cpu clock=  2.01E+00
 init: end check errors,  cpu clock=  2.02E+00 peak memory=       173 mb
 init: begin setup matrix, pivot=     0 cpu clock=  2.02E+00
       establish matrix -- done,  cpu clock=  2.02E+00 peak memory=       173 mb
       re-order matrix -- done,  cpu clock=  2.02E+00 peak memory=       173 mb
 init: end setup matrix,  cpu clock=  2.02E+00 peak memory=       173 mb
 dcop: begin dcop,  cpu clock=  2.02E+00
 dcop: end dcop,  cpu clock=  2.02E+00 peak memory=       173 mb  tot_iter=       9
 sweep: tran tran0    begin, stop_t=  2.00E-08 #sweeps= 201 cpu clock=  2.02E+00
 tran: time= 2.2052E-09 tot_iter=      10 conv_iter=       5 cpu clock= 2.02E+00
 tran: time= 4.2052E-09 tot_iter=      14 conv_iter=       7 cpu clock= 2.02E+00
 tran: time= 6.2052E-09 tot_iter=      18 conv_iter=       9 cpu clock= 2.02E+00
 tran: time= 8.2052E-09 tot_iter=      22 conv_iter=      11 cpu clock= 2.02E+00
 tran: time= 1.0000E-08 tot_iter=      26 conv_iter=      13 cpu clock= 2.02E+00
 tran: time= 1.2626E-08 tot_iter=     142 conv_iter=      54 cpu clock= 2.03E+00
 tran: time= 1.4626E-08 tot_iter=     147 conv_iter=      56 cpu clock= 2.03E+00
 tran: time= 1.6626E-08 tot_iter=     151 conv_iter=      58 cpu clock= 2.03E+00
 tran: time= 1.8626E-08 tot_iter=     155 conv_iter=      60 cpu clock= 2.03E+00
 tran: time= 2.0000E-08 tot_iter=     159 conv_iter=      62 cpu clock= 2.03E+00
 sweep: tran tran0    end,  cpu clock=  2.03E+00 peak memory=       173 mb
>info:         ***** hspice job concluded
 init: begin read circuit files,  cpu clock=  2.03E+00
       option search = /Tools/Synopsys/Hspice/hspice/parts/ad
       option search = /Tools/Synopsys/Hspice/hspice/parts/ad
       option search = /Tools/Synopsys/Hspice/hspice/parts/behave
       option search = /Tools/Synopsys/Hspice/hspice/parts/bjt
       option search = /Tools/Synopsys/Hspice/hspice/parts/burr_brn
       option search = /Tools/Synopsys/Hspice/hspice/parts/comlinear
       option search = /Tools/Synopsys/Hspice/hspice/parts/dio
       option search = /Tools/Synopsys/Hspice/hspice/parts/fet
       option search = /Tools/Synopsys/Hspice/hspice/parts/lin_tech
       option search = /Tools/Synopsys/Hspice/hspice/parts/pci
       option search = /Tools/Synopsys/Hspice/hspice/parts/signet
       option search = /Tools/Synopsys/Hspice/hspice/parts/ti
       option search = /Tools/Synopsys/Hspice/hspice/parts/tline
       option search = /Tools/Synopsys/Hspice/hspice/parts/xilinx
       option runlvl
       option delmax =    1.000E-09
       option artist =     2.00
       option ingold =     2.00
       option parhier = local
       option psf =     2.00
 init: end read circuit files,  cpu clock=  2.03E+00 peak memory=       173 mb
 init: begin check errors,  cpu clock=  2.03E+00
 init: end check errors,  cpu clock=  2.04E+00 peak memory=       173 mb
 init: begin setup matrix, pivot=     0 cpu clock=  2.04E+00
       establish matrix -- done,  cpu clock=  2.04E+00 peak memory=       173 mb
       re-order matrix -- done,  cpu clock=  2.04E+00 peak memory=       173 mb
 init: end setup matrix,  cpu clock=  2.04E+00 peak memory=       173 mb
 dcop: begin dcop,  cpu clock=  2.04E+00
 dcop: end dcop,  cpu clock=  2.04E+00 peak memory=       173 mb  tot_iter=       5
 sweep: tran tran0    begin, stop_t=  2.00E-08 #sweeps= 201 cpu clock=  2.04E+00
 tran: time= 2.2052E-09 tot_iter=      10 conv_iter=       5 cpu clock= 2.04E+00
 tran: time= 4.2052E-09 tot_iter=      14 conv_iter=       7 cpu clock= 2.04E+00
 tran: time= 6.2052E-09 tot_iter=      18 conv_iter=       9 cpu clock= 2.04E+00
 tran: time= 8.2052E-09 tot_iter=      22 conv_iter=      11 cpu clock= 2.04E+00
 tran: time= 1.0000E-08 tot_iter=      26 conv_iter=      13 cpu clock= 2.04E+00
 tran: time= 1.2952E-08 tot_iter=     122 conv_iter=      49 cpu clock= 2.05E+00
 tran: time= 1.4952E-08 tot_iter=     126 conv_iter=      51 cpu clock= 2.05E+00
 tran: time= 1.6952E-08 tot_iter=     130 conv_iter=      53 cpu clock= 2.05E+00
 tran: time= 1.8952E-08 tot_iter=     134 conv_iter=      55 cpu clock= 2.05E+00
 tran: time= 2.0000E-08 tot_iter=     136 conv_iter=      56 cpu clock= 2.05E+00
 sweep: tran tran0    end,  cpu clock=  2.05E+00 peak memory=       173 mb
>info:         ***** hspice job concluded
 init: begin read circuit files,  cpu clock=  2.05E+00
       option search = /Tools/Synopsys/Hspice/hspice/parts/ad
       option search = /Tools/Synopsys/Hspice/hspice/parts/ad
       option search = /Tools/Synopsys/Hspice/hspice/parts/behave
       option search = /Tools/Synopsys/Hspice/hspice/parts/bjt
       option search = /Tools/Synopsys/Hspice/hspice/parts/burr_brn
       option search = /Tools/Synopsys/Hspice/hspice/parts/comlinear
       option search = /Tools/Synopsys/Hspice/hspice/parts/dio
       option search = /Tools/Synopsys/Hspice/hspice/parts/fet
       option search = /Tools/Synopsys/Hspice/hspice/parts/lin_tech
       option search = /Tools/Synopsys/Hspice/hspice/parts/pci
       option search = /Tools/Synopsys/Hspice/hspice/parts/signet
       option search = /Tools/Synopsys/Hspice/hspice/parts/ti
       option search = /Tools/Synopsys/Hspice/hspice/parts/tline
       option search = /Tools/Synopsys/Hspice/hspice/parts/xilinx
       option runlvl
       option delmax =    1.000E-09
       option artist =     2.00
       option ingold =     2.00
       option parhier = local
       option psf =     2.00
 init: end read circuit files,  cpu clock=  2.05E+00 peak memory=       173 mb
 init: begin check errors,  cpu clock=  2.05E+00
 init: end check errors,  cpu clock=  2.06E+00 peak memory=       173 mb
 init: begin setup matrix, pivot=     0 cpu clock=  2.06E+00
       establish matrix -- done,  cpu clock=  2.06E+00 peak memory=       173 mb
       re-order matrix -- done,  cpu clock=  2.06E+00 peak memory=       173 mb
 init: end setup matrix,  cpu clock=  2.06E+00 peak memory=       173 mb
 dcop: begin dcop,  cpu clock=  2.06E+00
 dcop: end dcop,  cpu clock=  2.06E+00 peak memory=       173 mb  tot_iter=       5
 sweep: tran tran0    begin, stop_t=  2.00E-08 #sweeps= 201 cpu clock=  2.06E+00
 tran: time= 2.2052E-09 tot_iter=      10 conv_iter=       5 cpu clock= 2.06E+00
 tran: time= 4.2052E-09 tot_iter=      14 conv_iter=       7 cpu clock= 2.06E+00
 tran: time= 6.2052E-09 tot_iter=      18 conv_iter=       9 cpu clock= 2.06E+00
 tran: time= 8.2052E-09 tot_iter=      22 conv_iter=      11 cpu clock= 2.06E+00
 tran: time= 1.0000E-08 tot_iter=      26 conv_iter=      13 cpu clock= 2.06E+00
 tran: time= 1.2063E-08 tot_iter=     134 conv_iter=      51 cpu clock= 2.07E+00
 tran: time= 1.4063E-08 tot_iter=     139 conv_iter=      53 cpu clock= 2.07E+00
 tran: time= 1.6063E-08 tot_iter=     143 conv_iter=      55 cpu clock= 2.07E+00
 tran: time= 1.8063E-08 tot_iter=     147 conv_iter=      57 cpu clock= 2.07E+00
 tran: time= 2.0000E-08 tot_iter=     151 conv_iter=      59 cpu clock= 2.07E+00
 sweep: tran tran0    end,  cpu clock=  2.07E+00 peak memory=       173 mb
>info:         ***** hspice job concluded
 init: begin read circuit files,  cpu clock=  2.07E+00
       option search = /Tools/Synopsys/Hspice/hspice/parts/ad
       option search = /Tools/Synopsys/Hspice/hspice/parts/ad
       option search = /Tools/Synopsys/Hspice/hspice/parts/behave
       option search = /Tools/Synopsys/Hspice/hspice/parts/bjt
       option search = /Tools/Synopsys/Hspice/hspice/parts/burr_brn
       option search = /Tools/Synopsys/Hspice/hspice/parts/comlinear
       option search = /Tools/Synopsys/Hspice/hspice/parts/dio
       option search = /Tools/Synopsys/Hspice/hspice/parts/fet
       option search = /Tools/Synopsys/Hspice/hspice/parts/lin_tech
       option search = /Tools/Synopsys/Hspice/hspice/parts/pci
       option search = /Tools/Synopsys/Hspice/hspice/parts/signet
       option search = /Tools/Synopsys/Hspice/hspice/parts/ti
       option search = /Tools/Synopsys/Hspice/hspice/parts/tline
       option search = /Tools/Synopsys/Hspice/hspice/parts/xilinx
       option runlvl
       option delmax =    1.000E-09
       option artist =     2.00
       option ingold =     2.00
       option parhier = local
       option psf =     2.00
 init: end read circuit files,  cpu clock=  2.07E+00 peak memory=       173 mb
 init: begin check errors,  cpu clock=  2.07E+00
 init: end check errors,  cpu clock=  2.08E+00 peak memory=       173 mb
 init: begin setup matrix, pivot=     0 cpu clock=  2.08E+00
       establish matrix -- done,  cpu clock=  2.08E+00 peak memory=       173 mb
       re-order matrix -- done,  cpu clock=  2.08E+00 peak memory=       173 mb
 init: end setup matrix,  cpu clock=  2.08E+00 peak memory=       173 mb
 dcop: begin dcop,  cpu clock=  2.08E+00
 dcop: end dcop,  cpu clock=  2.08E+00 peak memory=       173 mb  tot_iter=       9
 sweep: tran tran0    begin, stop_t=  2.00E-08 #sweeps= 201 cpu clock=  2.08E+00
 tran: time= 2.2052E-09 tot_iter=      10 conv_iter=       5 cpu clock= 2.08E+00
 tran: time= 4.2052E-09 tot_iter=      14 conv_iter=       7 cpu clock= 2.08E+00
 tran: time= 6.2052E-09 tot_iter=      18 conv_iter=       9 cpu clock= 2.08E+00
 tran: time= 8.2052E-09 tot_iter=      22 conv_iter=      11 cpu clock= 2.08E+00
 tran: time= 1.0205E-08 tot_iter=      26 conv_iter=      13 cpu clock= 2.08E+00
 tran: time= 1.2205E-08 tot_iter=      30 conv_iter=      15 cpu clock= 2.08E+00
 tran: time= 1.4205E-08 tot_iter=      34 conv_iter=      17 cpu clock= 2.08E+00
 tran: time= 1.6205E-08 tot_iter=      38 conv_iter=      19 cpu clock= 2.08E+00
 tran: time= 1.8205E-08 tot_iter=      42 conv_iter=      21 cpu clock= 2.08E+00
 tran: time= 2.0000E-08 tot_iter=      46 conv_iter=      23 cpu clock= 2.08E+00
 sweep: tran tran0    end,  cpu clock=  2.08E+00 peak memory=       173 mb
>info:         ***** hspice job concluded
 init: begin read circuit files,  cpu clock=  2.09E+00
       option search = /Tools/Synopsys/Hspice/hspice/parts/ad
       option search = /Tools/Synopsys/Hspice/hspice/parts/ad
       option search = /Tools/Synopsys/Hspice/hspice/parts/behave
       option search = /Tools/Synopsys/Hspice/hspice/parts/bjt
       option search = /Tools/Synopsys/Hspice/hspice/parts/burr_brn
       option search = /Tools/Synopsys/Hspice/hspice/parts/comlinear
       option search = /Tools/Synopsys/Hspice/hspice/parts/dio
       option search = /Tools/Synopsys/Hspice/hspice/parts/fet
       option search = /Tools/Synopsys/Hspice/hspice/parts/lin_tech
       option search = /Tools/Synopsys/Hspice/hspice/parts/pci
       option search = /Tools/Synopsys/Hspice/hspice/parts/signet
       option search = /Tools/Synopsys/Hspice/hspice/parts/ti
       option search = /Tools/Synopsys/Hspice/hspice/parts/tline
       option search = /Tools/Synopsys/Hspice/hspice/parts/xilinx
       option runlvl
       option delmax =    1.000E-09
       option artist =     2.00
       option ingold =     2.00
       option parhier = local
       option psf =     2.00
 init: end read circuit files,  cpu clock=  2.09E+00 peak memory=       173 mb
 init: begin check errors,  cpu clock=  2.09E+00
 init: end check errors,  cpu clock=  2.09E+00 peak memory=       173 mb
 init: begin setup matrix, pivot=     0 cpu clock=  2.09E+00
       establish matrix -- done,  cpu clock=  2.09E+00 peak memory=       173 mb
       re-order matrix -- done,  cpu clock=  2.09E+00 peak memory=       173 mb
 init: end setup matrix,  cpu clock=  2.09E+00 peak memory=       173 mb
 dcop: begin dcop,  cpu clock=  2.09E+00
 dcop: end dcop,  cpu clock=  2.09E+00 peak memory=       173 mb  tot_iter=       9
 sweep: tran tran0    begin, stop_t=  2.00E-08 #sweeps= 201 cpu clock=  2.09E+00
 tran: time= 2.2052E-09 tot_iter=      10 conv_iter=       5 cpu clock= 2.09E+00
 tran: time= 4.2052E-09 tot_iter=      14 conv_iter=       7 cpu clock= 2.09E+00
 tran: time= 6.2052E-09 tot_iter=      18 conv_iter=       9 cpu clock= 2.09E+00
 tran: time= 8.2052E-09 tot_iter=      22 conv_iter=      11 cpu clock= 2.09E+00
 tran: time= 1.0000E-08 tot_iter=      26 conv_iter=      13 cpu clock= 2.09E+00
 tran: time= 1.2202E-08 tot_iter=     100 conv_iter=      42 cpu clock= 2.10E+00
 tran: time= 1.4202E-08 tot_iter=     104 conv_iter=      44 cpu clock= 2.10E+00
 tran: time= 1.6202E-08 tot_iter=     108 conv_iter=      46 cpu clock= 2.10E+00
 tran: time= 1.8202E-08 tot_iter=     112 conv_iter=      48 cpu clock= 2.10E+00
 tran: time= 2.0000E-08 tot_iter=     116 conv_iter=      50 cpu clock= 2.10E+00
 sweep: tran tran0    end,  cpu clock=  2.10E+00 peak memory=       173 mb
>info:         ***** hspice job concluded
 init: begin read circuit files,  cpu clock=  2.10E+00
       option search = /Tools/Synopsys/Hspice/hspice/parts/ad
       option search = /Tools/Synopsys/Hspice/hspice/parts/ad
       option search = /Tools/Synopsys/Hspice/hspice/parts/behave
       option search = /Tools/Synopsys/Hspice/hspice/parts/bjt
       option search = /Tools/Synopsys/Hspice/hspice/parts/burr_brn
       option search = /Tools/Synopsys/Hspice/hspice/parts/comlinear
       option search = /Tools/Synopsys/Hspice/hspice/parts/dio
       option search = /Tools/Synopsys/Hspice/hspice/parts/fet
       option search = /Tools/Synopsys/Hspice/hspice/parts/lin_tech
       option search = /Tools/Synopsys/Hspice/hspice/parts/pci
       option search = /Tools/Synopsys/Hspice/hspice/parts/signet
       option search = /Tools/Synopsys/Hspice/hspice/parts/ti
       option search = /Tools/Synopsys/Hspice/hspice/parts/tline
       option search = /Tools/Synopsys/Hspice/hspice/parts/xilinx
       option runlvl
       option delmax =    1.000E-09
       option artist =     2.00
       option ingold =     2.00
       option parhier = local
       option psf =     2.00
 init: end read circuit files,  cpu clock=  2.11E+00 peak memory=       173 mb
 init: begin check errors,  cpu clock=  2.11E+00
 init: end check errors,  cpu clock=  2.11E+00 peak memory=       173 mb
 init: begin setup matrix, pivot=     0 cpu clock=  2.11E+00
       establish matrix -- done,  cpu clock=  2.11E+00 peak memory=       173 mb
       re-order matrix -- done,  cpu clock=  2.11E+00 peak memory=       173 mb
 init: end setup matrix,  cpu clock=  2.11E+00 peak memory=       173 mb
 dcop: begin dcop,  cpu clock=  2.11E+00
 dcop: end dcop,  cpu clock=  2.11E+00 peak memory=       173 mb  tot_iter=       5
 sweep: tran tran0    begin, stop_t=  2.00E-08 #sweeps= 201 cpu clock=  2.11E+00
 tran: time= 2.2052E-09 tot_iter=      10 conv_iter=       5 cpu clock= 2.11E+00
 tran: time= 4.2052E-09 tot_iter=      14 conv_iter=       7 cpu clock= 2.11E+00
 tran: time= 6.2052E-09 tot_iter=      18 conv_iter=       9 cpu clock= 2.11E+00
 tran: time= 8.2052E-09 tot_iter=      22 conv_iter=      11 cpu clock= 2.11E+00
 tran: time= 1.0000E-08 tot_iter=      26 conv_iter=      13 cpu clock= 2.11E+00
 tran: time= 1.2640E-08 tot_iter=     117 conv_iter=      47 cpu clock= 2.12E+00
 tran: time= 1.4640E-08 tot_iter=     121 conv_iter=      49 cpu clock= 2.12E+00
 tran: time= 1.6640E-08 tot_iter=     125 conv_iter=      51 cpu clock= 2.12E+00
 tran: time= 1.8640E-08 tot_iter=     129 conv_iter=      53 cpu clock= 2.12E+00
 tran: time= 2.0000E-08 tot_iter=     133 conv_iter=      55 cpu clock= 2.12E+00
 sweep: tran tran0    end,  cpu clock=  2.12E+00 peak memory=       173 mb
>info:         ***** hspice job concluded
 init: begin read circuit files,  cpu clock=  2.12E+00
       option search = /Tools/Synopsys/Hspice/hspice/parts/ad
       option search = /Tools/Synopsys/Hspice/hspice/parts/ad
       option search = /Tools/Synopsys/Hspice/hspice/parts/behave
       option search = /Tools/Synopsys/Hspice/hspice/parts/bjt
       option search = /Tools/Synopsys/Hspice/hspice/parts/burr_brn
       option search = /Tools/Synopsys/Hspice/hspice/parts/comlinear
       option search = /Tools/Synopsys/Hspice/hspice/parts/dio
       option search = /Tools/Synopsys/Hspice/hspice/parts/fet
       option search = /Tools/Synopsys/Hspice/hspice/parts/lin_tech
       option search = /Tools/Synopsys/Hspice/hspice/parts/pci
       option search = /Tools/Synopsys/Hspice/hspice/parts/signet
       option search = /Tools/Synopsys/Hspice/hspice/parts/ti
       option search = /Tools/Synopsys/Hspice/hspice/parts/tline
       option search = /Tools/Synopsys/Hspice/hspice/parts/xilinx
       option runlvl
       option delmax =    1.000E-09
       option artist =     2.00
       option ingold =     2.00
       option parhier = local
       option psf =     2.00
 init: end read circuit files,  cpu clock=  2.12E+00 peak memory=       173 mb
 init: begin check errors,  cpu clock=  2.12E+00
 init: end check errors,  cpu clock=  2.13E+00 peak memory=       173 mb
 init: begin setup matrix, pivot=     0 cpu clock=  2.13E+00
       establish matrix -- done,  cpu clock=  2.13E+00 peak memory=       173 mb
       re-order matrix -- done,  cpu clock=  2.13E+00 peak memory=       173 mb
 init: end setup matrix,  cpu clock=  2.13E+00 peak memory=       173 mb
 dcop: begin dcop,  cpu clock=  2.13E+00
 dcop: end dcop,  cpu clock=  2.13E+00 peak memory=       173 mb  tot_iter=       5
 sweep: tran tran0    begin, stop_t=  2.00E-08 #sweeps= 201 cpu clock=  2.13E+00
 tran: time= 2.2052E-09 tot_iter=      10 conv_iter=       5 cpu clock= 2.13E+00
 tran: time= 4.2052E-09 tot_iter=      14 conv_iter=       7 cpu clock= 2.13E+00
 tran: time= 6.2052E-09 tot_iter=      18 conv_iter=       9 cpu clock= 2.13E+00
 tran: time= 8.2052E-09 tot_iter=      22 conv_iter=      11 cpu clock= 2.13E+00
 tran: time= 1.0205E-08 tot_iter=      26 conv_iter=      13 cpu clock= 2.13E+00
 tran: time= 1.2205E-08 tot_iter=      30 conv_iter=      15 cpu clock= 2.13E+00
 tran: time= 1.4205E-08 tot_iter=      34 conv_iter=      17 cpu clock= 2.13E+00
 tran: time= 1.6205E-08 tot_iter=      38 conv_iter=      19 cpu clock= 2.13E+00
 tran: time= 1.8205E-08 tot_iter=      42 conv_iter=      21 cpu clock= 2.13E+00
 tran: time= 2.0000E-08 tot_iter=      46 conv_iter=      23 cpu clock= 2.13E+00
 sweep: tran tran0    end,  cpu clock=  2.13E+00 peak memory=       173 mb
>info:         ***** hspice job concluded
 lic: Release hspice token(s)
