$DATA1 SOURCE='HSPICE' VERSION='I-2013.12-SP1 64-BIT'
.TITLE 'tfts'
 ivth_nmos        ivth_pmos_temp   ivth_pmos        temper            
 alter#            
  2.064e-01       -2.562e-01        2.562e-01        2.500e+01        
 49                
