***** HSPICE -- I-2013.12-SP1 64-BIT (Feb 25 2014) RHEL64 ******
 Input File: mos_vth.sp
 lic:
 lic: FLEXlm: v10.9.8
 lic: USER:   2015104069           HOSTNAME: vlsi-dist.khu.ac.kr
 lic: HOSTID: 382c4ac7d475         PID:      31641
 lic: Using FLEXlm license file:
 lic: 27020@163.180.118.27
 lic: Checkout 1 hspice
 lic: License/Maintenance for hspice will expire on 30-jun-2020/2018.09
 lic: 1(in_use)/7(total) FLOATING license(s) on SERVER 27020@163.180.118.27
 lic:
 init: begin read circuit files,  cpu clock=  1.66E+01
       option search = /Tools/Synopsys/Hspice/hspice/parts/ad
       option search = /Tools/Synopsys/Hspice/hspice/parts/ad
       option search = /Tools/Synopsys/Hspice/hspice/parts/behave
       option search = /Tools/Synopsys/Hspice/hspice/parts/bjt
       option search = /Tools/Synopsys/Hspice/hspice/parts/burr_brn
       option search = /Tools/Synopsys/Hspice/hspice/parts/comlinear
       option search = /Tools/Synopsys/Hspice/hspice/parts/dio
       option search = /Tools/Synopsys/Hspice/hspice/parts/fet
       option search = /Tools/Synopsys/Hspice/hspice/parts/lin_tech
       option search = /Tools/Synopsys/Hspice/hspice/parts/pci
       option search = /Tools/Synopsys/Hspice/hspice/parts/signet
       option search = /Tools/Synopsys/Hspice/hspice/parts/ti
       option search = /Tools/Synopsys/Hspice/hspice/parts/tline
       option search = /Tools/Synopsys/Hspice/hspice/parts/xilinx
       option runlvl
       option delmax =    1.000E-09
       option probe
       option post =     2.00
       option artist =     2.00
       option ingold =     2.00
       option parhier = local
       option psf =     2.00
       option ivth =    1.000E-07
       option bypass =     0.00
 init: end read circuit files,  cpu clock=  1.66E+01 peak memory=       174 mb
 init: begin check errors,  cpu clock=  1.66E+01
 init: end check errors,  cpu clock=  1.66E+01 peak memory=       174 mb
 init: begin setup matrix, pivot=     0 cpu clock=  1.66E+01
       establish matrix -- done,  cpu clock=  1.66E+01 peak memory=       174 mb
       re-order matrix -- done,  cpu clock=  1.66E+01 peak memory=       174 mb
 init: end setup matrix,  cpu clock=  1.66E+01 peak memory=       174 mb
 dcop: begin dcop,  cpu clock=  1.66E+01
 dcop: end dcop,  cpu clock=  1.66E+01 peak memory=       174 mb  tot_iter=       4
 sweep: tran tran0    begin, stop_t=  5.00E-09 #sweeps=   2 cpu clock=  1.66E+01
 tran: time= 5.7500E-10 tot_iter=       6 conv_iter=       3 cpu clock= 1.66E+01
 tran: time= 1.0750E-09 tot_iter=      10 conv_iter=       5 cpu clock= 1.66E+01
 tran: time= 1.5750E-09 tot_iter=      14 conv_iter=       7 cpu clock= 1.66E+01
 tran: time= 2.0750E-09 tot_iter=      18 conv_iter=       9 cpu clock= 1.66E+01
 tran: time= 2.5750E-09 tot_iter=      22 conv_iter=      11 cpu clock= 1.66E+01
 tran: time= 3.0750E-09 tot_iter=      26 conv_iter=      13 cpu clock= 1.66E+01
 tran: time= 3.5750E-09 tot_iter=      30 conv_iter=      15 cpu clock= 1.66E+01
 tran: time= 4.0750E-09 tot_iter=      34 conv_iter=      17 cpu clock= 1.66E+01
 tran: time= 4.5750E-09 tot_iter=      38 conv_iter=      19 cpu clock= 1.66E+01
 tran: time= 5.0000E-09 tot_iter=      42 conv_iter=      21 cpu clock= 1.66E+01
 sweep: tran tran0    end,  cpu clock=  1.66E+01 peak memory=       174 mb
>info:         ***** hspice job concluded
 init: begin read circuit files,  cpu clock=  1.66E+01
       option search = /Tools/Synopsys/Hspice/hspice/parts/ad
       option search = /Tools/Synopsys/Hspice/hspice/parts/ad
       option search = /Tools/Synopsys/Hspice/hspice/parts/behave
       option search = /Tools/Synopsys/Hspice/hspice/parts/bjt
       option search = /Tools/Synopsys/Hspice/hspice/parts/burr_brn
       option search = /Tools/Synopsys/Hspice/hspice/parts/comlinear
       option search = /Tools/Synopsys/Hspice/hspice/parts/dio
       option search = /Tools/Synopsys/Hspice/hspice/parts/fet
       option search = /Tools/Synopsys/Hspice/hspice/parts/lin_tech
       option search = /Tools/Synopsys/Hspice/hspice/parts/pci
       option search = /Tools/Synopsys/Hspice/hspice/parts/signet
       option search = /Tools/Synopsys/Hspice/hspice/parts/ti
       option search = /Tools/Synopsys/Hspice/hspice/parts/tline
       option search = /Tools/Synopsys/Hspice/hspice/parts/xilinx
       option runlvl
       option delmax =    1.000E-09
       option probe
       option post =     2.00
       option artist =     2.00
       option ingold =     2.00
       option parhier = local
       option psf =     2.00
       option ivth =    1.000E-07
       option bypass =     0.00
 init: end read circuit files,  cpu clock=  1.66E+01 peak memory=       174 mb
 init: begin check errors,  cpu clock=  1.66E+01
 init: end check errors,  cpu clock=  1.66E+01 peak memory=       174 mb
 init: begin setup matrix, pivot=     0 cpu clock=  1.66E+01
       establish matrix -- done,  cpu clock=  1.66E+01 peak memory=       174 mb
       re-order matrix -- done,  cpu clock=  1.66E+01 peak memory=       174 mb
 init: end setup matrix,  cpu clock=  1.66E+01 peak memory=       174 mb
 dcop: begin dcop,  cpu clock=  1.66E+01
 dcop: end dcop,  cpu clock=  1.66E+01 peak memory=       174 mb  tot_iter=       4
 sweep: tran tran0    begin, stop_t=  5.00E-09 #sweeps=   2 cpu clock=  1.66E+01
 tran: time= 5.7500E-10 tot_iter=       6 conv_iter=       3 cpu clock= 1.66E+01
 tran: time= 1.0750E-09 tot_iter=      10 conv_iter=       5 cpu clock= 1.66E+01
 tran: time= 1.5750E-09 tot_iter=      14 conv_iter=       7 cpu clock= 1.66E+01
 tran: time= 2.0750E-09 tot_iter=      18 conv_iter=       9 cpu clock= 1.66E+01
 tran: time= 2.5750E-09 tot_iter=      22 conv_iter=      11 cpu clock= 1.66E+01
 tran: time= 3.0750E-09 tot_iter=      26 conv_iter=      13 cpu clock= 1.66E+01
 tran: time= 3.5750E-09 tot_iter=      30 conv_iter=      15 cpu clock= 1.66E+01
 tran: time= 4.0750E-09 tot_iter=      34 conv_iter=      17 cpu clock= 1.66E+01
 tran: time= 4.5750E-09 tot_iter=      38 conv_iter=      19 cpu clock= 1.66E+01
 tran: time= 5.0000E-09 tot_iter=      42 conv_iter=      21 cpu clock= 1.66E+01
 sweep: tran tran0    end,  cpu clock=  1.66E+01 peak memory=       174 mb
>info:         ***** hspice job concluded
 init: begin read circuit files,  cpu clock=  1.66E+01
       option search = /Tools/Synopsys/Hspice/hspice/parts/ad
       option search = /Tools/Synopsys/Hspice/hspice/parts/ad
       option search = /Tools/Synopsys/Hspice/hspice/parts/behave
       option search = /Tools/Synopsys/Hspice/hspice/parts/bjt
       option search = /Tools/Synopsys/Hspice/hspice/parts/burr_brn
       option search = /Tools/Synopsys/Hspice/hspice/parts/comlinear
       option search = /Tools/Synopsys/Hspice/hspice/parts/dio
       option search = /Tools/Synopsys/Hspice/hspice/parts/fet
       option search = /Tools/Synopsys/Hspice/hspice/parts/lin_tech
       option search = /Tools/Synopsys/Hspice/hspice/parts/pci
       option search = /Tools/Synopsys/Hspice/hspice/parts/signet
       option search = /Tools/Synopsys/Hspice/hspice/parts/ti
       option search = /Tools/Synopsys/Hspice/hspice/parts/tline
       option search = /Tools/Synopsys/Hspice/hspice/parts/xilinx
       option runlvl
       option delmax =    1.000E-09
       option probe
       option post =     2.00
       option artist =     2.00
       option ingold =     2.00
       option parhier = local
       option psf =     2.00
       option ivth =    1.000E-07
       option bypass =     0.00
 init: end read circuit files,  cpu clock=  1.66E+01 peak memory=       174 mb
 init: begin check errors,  cpu clock=  1.66E+01
 init: end check errors,  cpu clock=  1.66E+01 peak memory=       174 mb
 init: begin setup matrix, pivot=     0 cpu clock=  1.66E+01
       establish matrix -- done,  cpu clock=  1.66E+01 peak memory=       174 mb
       re-order matrix -- done,  cpu clock=  1.66E+01 peak memory=       174 mb
 init: end setup matrix,  cpu clock=  1.66E+01 peak memory=       174 mb
 dcop: begin dcop,  cpu clock=  1.66E+01
 dcop: end dcop,  cpu clock=  1.66E+01 peak memory=       174 mb  tot_iter=       4
 sweep: tran tran0    begin, stop_t=  5.00E-09 #sweeps=   2 cpu clock=  1.66E+01
 tran: time= 5.7500E-10 tot_iter=       6 conv_iter=       3 cpu clock= 1.66E+01
 tran: time= 1.0750E-09 tot_iter=      10 conv_iter=       5 cpu clock= 1.66E+01
 tran: time= 1.5750E-09 tot_iter=      14 conv_iter=       7 cpu clock= 1.66E+01
 tran: time= 2.0750E-09 tot_iter=      18 conv_iter=       9 cpu clock= 1.66E+01
 tran: time= 2.5750E-09 tot_iter=      22 conv_iter=      11 cpu clock= 1.66E+01
 tran: time= 3.0750E-09 tot_iter=      26 conv_iter=      13 cpu clock= 1.66E+01
 tran: time= 3.5750E-09 tot_iter=      30 conv_iter=      15 cpu clock= 1.66E+01
 tran: time= 4.0750E-09 tot_iter=      34 conv_iter=      17 cpu clock= 1.66E+01
 tran: time= 4.5750E-09 tot_iter=      38 conv_iter=      19 cpu clock= 1.66E+01
 tran: time= 5.0000E-09 tot_iter=      42 conv_iter=      21 cpu clock= 1.66E+01
 sweep: tran tran0    end,  cpu clock=  1.66E+01 peak memory=       174 mb
>info:         ***** hspice job concluded
 init: begin read circuit files,  cpu clock=  1.66E+01
       option search = /Tools/Synopsys/Hspice/hspice/parts/ad
       option search = /Tools/Synopsys/Hspice/hspice/parts/ad
       option search = /Tools/Synopsys/Hspice/hspice/parts/behave
       option search = /Tools/Synopsys/Hspice/hspice/parts/bjt
       option search = /Tools/Synopsys/Hspice/hspice/parts/burr_brn
       option search = /Tools/Synopsys/Hspice/hspice/parts/comlinear
       option search = /Tools/Synopsys/Hspice/hspice/parts/dio
       option search = /Tools/Synopsys/Hspice/hspice/parts/fet
       option search = /Tools/Synopsys/Hspice/hspice/parts/lin_tech
       option search = /Tools/Synopsys/Hspice/hspice/parts/pci
       option search = /Tools/Synopsys/Hspice/hspice/parts/signet
       option search = /Tools/Synopsys/Hspice/hspice/parts/ti
       option search = /Tools/Synopsys/Hspice/hspice/parts/tline
       option search = /Tools/Synopsys/Hspice/hspice/parts/xilinx
       option runlvl
       option delmax =    1.000E-09
       option probe
       option post =     2.00
       option artist =     2.00
       option ingold =     2.00
       option parhier = local
       option psf =     2.00
       option ivth =    1.000E-07
       option bypass =     0.00
 init: end read circuit files,  cpu clock=  1.66E+01 peak memory=       174 mb
 init: begin check errors,  cpu clock=  1.66E+01
 init: end check errors,  cpu clock=  1.66E+01 peak memory=       174 mb
 init: begin setup matrix, pivot=     0 cpu clock=  1.66E+01
       establish matrix -- done,  cpu clock=  1.66E+01 peak memory=       174 mb
       re-order matrix -- done,  cpu clock=  1.66E+01 peak memory=       174 mb
 init: end setup matrix,  cpu clock=  1.66E+01 peak memory=       174 mb
 dcop: begin dcop,  cpu clock=  1.66E+01
 dcop: end dcop,  cpu clock=  1.66E+01 peak memory=       174 mb  tot_iter=       4
 sweep: tran tran0    begin, stop_t=  5.00E-09 #sweeps=   2 cpu clock=  1.66E+01
 tran: time= 5.7500E-10 tot_iter=       6 conv_iter=       3 cpu clock= 1.66E+01
 tran: time= 1.0750E-09 tot_iter=      10 conv_iter=       5 cpu clock= 1.66E+01
 tran: time= 1.5750E-09 tot_iter=      14 conv_iter=       7 cpu clock= 1.66E+01
 tran: time= 2.0750E-09 tot_iter=      18 conv_iter=       9 cpu clock= 1.66E+01
 tran: time= 2.5750E-09 tot_iter=      22 conv_iter=      11 cpu clock= 1.66E+01
 tran: time= 3.0750E-09 tot_iter=      26 conv_iter=      13 cpu clock= 1.66E+01
 tran: time= 3.5750E-09 tot_iter=      30 conv_iter=      15 cpu clock= 1.66E+01
 tran: time= 4.0750E-09 tot_iter=      34 conv_iter=      17 cpu clock= 1.66E+01
 tran: time= 4.5750E-09 tot_iter=      38 conv_iter=      19 cpu clock= 1.66E+01
 tran: time= 5.0000E-09 tot_iter=      42 conv_iter=      21 cpu clock= 1.66E+01
 sweep: tran tran0    end,  cpu clock=  1.66E+01 peak memory=       174 mb
>info:         ***** hspice job concluded
 init: begin read circuit files,  cpu clock=  1.66E+01
       option search = /Tools/Synopsys/Hspice/hspice/parts/ad
       option search = /Tools/Synopsys/Hspice/hspice/parts/ad
       option search = /Tools/Synopsys/Hspice/hspice/parts/behave
       option search = /Tools/Synopsys/Hspice/hspice/parts/bjt
       option search = /Tools/Synopsys/Hspice/hspice/parts/burr_brn
       option search = /Tools/Synopsys/Hspice/hspice/parts/comlinear
       option search = /Tools/Synopsys/Hspice/hspice/parts/dio
       option search = /Tools/Synopsys/Hspice/hspice/parts/fet
       option search = /Tools/Synopsys/Hspice/hspice/parts/lin_tech
       option search = /Tools/Synopsys/Hspice/hspice/parts/pci
       option search = /Tools/Synopsys/Hspice/hspice/parts/signet
       option search = /Tools/Synopsys/Hspice/hspice/parts/ti
       option search = /Tools/Synopsys/Hspice/hspice/parts/tline
       option search = /Tools/Synopsys/Hspice/hspice/parts/xilinx
       option runlvl
       option delmax =    1.000E-09
       option probe
       option post =     2.00
       option artist =     2.00
       option ingold =     2.00
       option parhier = local
       option psf =     2.00
       option ivth =    1.000E-07
       option bypass =     0.00
 init: end read circuit files,  cpu clock=  1.66E+01 peak memory=       174 mb
 init: begin check errors,  cpu clock=  1.66E+01
 init: end check errors,  cpu clock=  1.66E+01 peak memory=       174 mb
 init: begin setup matrix, pivot=     0 cpu clock=  1.66E+01
       establish matrix -- done,  cpu clock=  1.66E+01 peak memory=       174 mb
       re-order matrix -- done,  cpu clock=  1.66E+01 peak memory=       174 mb
 init: end setup matrix,  cpu clock=  1.66E+01 peak memory=       174 mb
 dcop: begin dcop,  cpu clock=  1.66E+01
 dcop: end dcop,  cpu clock=  1.66E+01 peak memory=       174 mb  tot_iter=       4
 sweep: tran tran0    begin, stop_t=  5.00E-09 #sweeps=   2 cpu clock=  1.66E+01
 tran: time= 5.7500E-10 tot_iter=       6 conv_iter=       3 cpu clock= 1.66E+01
 tran: time= 1.0750E-09 tot_iter=      10 conv_iter=       5 cpu clock= 1.66E+01
 tran: time= 1.5750E-09 tot_iter=      14 conv_iter=       7 cpu clock= 1.66E+01
 tran: time= 2.0750E-09 tot_iter=      18 conv_iter=       9 cpu clock= 1.66E+01
 tran: time= 2.5750E-09 tot_iter=      22 conv_iter=      11 cpu clock= 1.66E+01
 tran: time= 3.0750E-09 tot_iter=      26 conv_iter=      13 cpu clock= 1.66E+01
 tran: time= 3.5750E-09 tot_iter=      30 conv_iter=      15 cpu clock= 1.66E+01
 tran: time= 4.0750E-09 tot_iter=      34 conv_iter=      17 cpu clock= 1.66E+01
 tran: time= 4.5750E-09 tot_iter=      38 conv_iter=      19 cpu clock= 1.66E+01
 tran: time= 5.0000E-09 tot_iter=      42 conv_iter=      21 cpu clock= 1.66E+01
 sweep: tran tran0    end,  cpu clock=  1.66E+01 peak memory=       174 mb
>info:         ***** hspice job concluded
 init: begin read circuit files,  cpu clock=  1.66E+01
       option search = /Tools/Synopsys/Hspice/hspice/parts/ad
       option search = /Tools/Synopsys/Hspice/hspice/parts/ad
       option search = /Tools/Synopsys/Hspice/hspice/parts/behave
       option search = /Tools/Synopsys/Hspice/hspice/parts/bjt
       option search = /Tools/Synopsys/Hspice/hspice/parts/burr_brn
       option search = /Tools/Synopsys/Hspice/hspice/parts/comlinear
       option search = /Tools/Synopsys/Hspice/hspice/parts/dio
       option search = /Tools/Synopsys/Hspice/hspice/parts/fet
       option search = /Tools/Synopsys/Hspice/hspice/parts/lin_tech
       option search = /Tools/Synopsys/Hspice/hspice/parts/pci
       option search = /Tools/Synopsys/Hspice/hspice/parts/signet
       option search = /Tools/Synopsys/Hspice/hspice/parts/ti
       option search = /Tools/Synopsys/Hspice/hspice/parts/tline
       option search = /Tools/Synopsys/Hspice/hspice/parts/xilinx
       option runlvl
       option delmax =    1.000E-09
       option probe
       option post =     2.00
       option artist =     2.00
       option ingold =     2.00
       option parhier = local
       option psf =     2.00
       option ivth =    1.000E-07
       option bypass =     0.00
 init: end read circuit files,  cpu clock=  1.66E+01 peak memory=       174 mb
 init: begin check errors,  cpu clock=  1.66E+01
 init: end check errors,  cpu clock=  1.66E+01 peak memory=       174 mb
 init: begin setup matrix, pivot=     0 cpu clock=  1.66E+01
       establish matrix -- done,  cpu clock=  1.66E+01 peak memory=       174 mb
       re-order matrix -- done,  cpu clock=  1.66E+01 peak memory=       174 mb
 init: end setup matrix,  cpu clock=  1.66E+01 peak memory=       174 mb
 dcop: begin dcop,  cpu clock=  1.66E+01
 dcop: end dcop,  cpu clock=  1.66E+01 peak memory=       174 mb  tot_iter=       4
 sweep: tran tran0    begin, stop_t=  5.00E-09 #sweeps=   2 cpu clock=  1.66E+01
 tran: time= 5.7500E-10 tot_iter=       6 conv_iter=       3 cpu clock= 1.66E+01
 tran: time= 1.0750E-09 tot_iter=      10 conv_iter=       5 cpu clock= 1.66E+01
 tran: time= 1.5750E-09 tot_iter=      14 conv_iter=       7 cpu clock= 1.66E+01
 tran: time= 2.0750E-09 tot_iter=      18 conv_iter=       9 cpu clock= 1.66E+01
 tran: time= 2.5750E-09 tot_iter=      22 conv_iter=      11 cpu clock= 1.66E+01
 tran: time= 3.0750E-09 tot_iter=      26 conv_iter=      13 cpu clock= 1.66E+01
 tran: time= 3.5750E-09 tot_iter=      30 conv_iter=      15 cpu clock= 1.66E+01
 tran: time= 4.0750E-09 tot_iter=      34 conv_iter=      17 cpu clock= 1.66E+01
 tran: time= 4.5750E-09 tot_iter=      38 conv_iter=      19 cpu clock= 1.66E+01
 tran: time= 5.0000E-09 tot_iter=      42 conv_iter=      21 cpu clock= 1.66E+01
 sweep: tran tran0    end,  cpu clock=  1.66E+01 peak memory=       174 mb
>info:         ***** hspice job concluded
 init: begin read circuit files,  cpu clock=  1.66E+01
       option search = /Tools/Synopsys/Hspice/hspice/parts/ad
       option search = /Tools/Synopsys/Hspice/hspice/parts/ad
       option search = /Tools/Synopsys/Hspice/hspice/parts/behave
       option search = /Tools/Synopsys/Hspice/hspice/parts/bjt
       option search = /Tools/Synopsys/Hspice/hspice/parts/burr_brn
       option search = /Tools/Synopsys/Hspice/hspice/parts/comlinear
       option search = /Tools/Synopsys/Hspice/hspice/parts/dio
       option search = /Tools/Synopsys/Hspice/hspice/parts/fet
       option search = /Tools/Synopsys/Hspice/hspice/parts/lin_tech
       option search = /Tools/Synopsys/Hspice/hspice/parts/pci
       option search = /Tools/Synopsys/Hspice/hspice/parts/signet
       option search = /Tools/Synopsys/Hspice/hspice/parts/ti
       option search = /Tools/Synopsys/Hspice/hspice/parts/tline
       option search = /Tools/Synopsys/Hspice/hspice/parts/xilinx
       option runlvl
       option delmax =    1.000E-09
       option probe
       option post =     2.00
       option artist =     2.00
       option ingold =     2.00
       option parhier = local
       option psf =     2.00
       option ivth =    1.000E-07
       option bypass =     0.00
 init: end read circuit files,  cpu clock=  1.66E+01 peak memory=       174 mb
 init: begin check errors,  cpu clock=  1.66E+01
 init: end check errors,  cpu clock=  1.66E+01 peak memory=       174 mb
 init: begin setup matrix, pivot=     0 cpu clock=  1.66E+01
       establish matrix -- done,  cpu clock=  1.66E+01 peak memory=       174 mb
       re-order matrix -- done,  cpu clock=  1.66E+01 peak memory=       174 mb
 init: end setup matrix,  cpu clock=  1.66E+01 peak memory=       174 mb
 dcop: begin dcop,  cpu clock=  1.66E+01
 dcop: end dcop,  cpu clock=  1.66E+01 peak memory=       174 mb  tot_iter=       4
 sweep: tran tran0    begin, stop_t=  5.00E-09 #sweeps=   2 cpu clock=  1.67E+01
 tran: time= 5.7500E-10 tot_iter=       6 conv_iter=       3 cpu clock= 1.67E+01
 tran: time= 1.0750E-09 tot_iter=      10 conv_iter=       5 cpu clock= 1.67E+01
 tran: time= 1.5750E-09 tot_iter=      14 conv_iter=       7 cpu clock= 1.67E+01
 tran: time= 2.0750E-09 tot_iter=      18 conv_iter=       9 cpu clock= 1.67E+01
 tran: time= 2.5750E-09 tot_iter=      22 conv_iter=      11 cpu clock= 1.67E+01
 tran: time= 3.0750E-09 tot_iter=      26 conv_iter=      13 cpu clock= 1.67E+01
 tran: time= 3.5750E-09 tot_iter=      30 conv_iter=      15 cpu clock= 1.67E+01
 tran: time= 4.0750E-09 tot_iter=      34 conv_iter=      17 cpu clock= 1.67E+01
 tran: time= 4.5750E-09 tot_iter=      38 conv_iter=      19 cpu clock= 1.67E+01
 tran: time= 5.0000E-09 tot_iter=      42 conv_iter=      21 cpu clock= 1.67E+01
 sweep: tran tran0    end,  cpu clock=  1.67E+01 peak memory=       174 mb
>info:         ***** hspice job concluded
 init: begin read circuit files,  cpu clock=  1.67E+01
       option search = /Tools/Synopsys/Hspice/hspice/parts/ad
       option search = /Tools/Synopsys/Hspice/hspice/parts/ad
       option search = /Tools/Synopsys/Hspice/hspice/parts/behave
       option search = /Tools/Synopsys/Hspice/hspice/parts/bjt
       option search = /Tools/Synopsys/Hspice/hspice/parts/burr_brn
       option search = /Tools/Synopsys/Hspice/hspice/parts/comlinear
       option search = /Tools/Synopsys/Hspice/hspice/parts/dio
       option search = /Tools/Synopsys/Hspice/hspice/parts/fet
       option search = /Tools/Synopsys/Hspice/hspice/parts/lin_tech
       option search = /Tools/Synopsys/Hspice/hspice/parts/pci
       option search = /Tools/Synopsys/Hspice/hspice/parts/signet
       option search = /Tools/Synopsys/Hspice/hspice/parts/ti
       option search = /Tools/Synopsys/Hspice/hspice/parts/tline
       option search = /Tools/Synopsys/Hspice/hspice/parts/xilinx
       option runlvl
       option delmax =    1.000E-09
       option probe
       option post =     2.00
       option artist =     2.00
       option ingold =     2.00
       option parhier = local
       option psf =     2.00
       option ivth =    1.000E-07
       option bypass =     0.00
 init: end read circuit files,  cpu clock=  1.67E+01 peak memory=       174 mb
 init: begin check errors,  cpu clock=  1.67E+01
 init: end check errors,  cpu clock=  1.67E+01 peak memory=       174 mb
 init: begin setup matrix, pivot=     0 cpu clock=  1.67E+01
       establish matrix -- done,  cpu clock=  1.67E+01 peak memory=       174 mb
       re-order matrix -- done,  cpu clock=  1.67E+01 peak memory=       174 mb
 init: end setup matrix,  cpu clock=  1.67E+01 peak memory=       174 mb
 dcop: begin dcop,  cpu clock=  1.67E+01
 dcop: end dcop,  cpu clock=  1.67E+01 peak memory=       174 mb  tot_iter=       4
 sweep: tran tran0    begin, stop_t=  5.00E-09 #sweeps=   2 cpu clock=  1.67E+01
 tran: time= 5.7500E-10 tot_iter=       6 conv_iter=       3 cpu clock= 1.67E+01
 tran: time= 1.0750E-09 tot_iter=      10 conv_iter=       5 cpu clock= 1.67E+01
 tran: time= 1.5750E-09 tot_iter=      14 conv_iter=       7 cpu clock= 1.67E+01
 tran: time= 2.0750E-09 tot_iter=      18 conv_iter=       9 cpu clock= 1.67E+01
 tran: time= 2.5750E-09 tot_iter=      22 conv_iter=      11 cpu clock= 1.67E+01
 tran: time= 3.0750E-09 tot_iter=      26 conv_iter=      13 cpu clock= 1.67E+01
 tran: time= 3.5750E-09 tot_iter=      30 conv_iter=      15 cpu clock= 1.67E+01
 tran: time= 4.0750E-09 tot_iter=      34 conv_iter=      17 cpu clock= 1.67E+01
 tran: time= 4.5750E-09 tot_iter=      38 conv_iter=      19 cpu clock= 1.67E+01
 tran: time= 5.0000E-09 tot_iter=      42 conv_iter=      21 cpu clock= 1.67E+01
 sweep: tran tran0    end,  cpu clock=  1.67E+01 peak memory=       174 mb
>info:         ***** hspice job concluded
 init: begin read circuit files,  cpu clock=  1.67E+01
       option search = /Tools/Synopsys/Hspice/hspice/parts/ad
       option search = /Tools/Synopsys/Hspice/hspice/parts/ad
       option search = /Tools/Synopsys/Hspice/hspice/parts/behave
       option search = /Tools/Synopsys/Hspice/hspice/parts/bjt
       option search = /Tools/Synopsys/Hspice/hspice/parts/burr_brn
       option search = /Tools/Synopsys/Hspice/hspice/parts/comlinear
       option search = /Tools/Synopsys/Hspice/hspice/parts/dio
       option search = /Tools/Synopsys/Hspice/hspice/parts/fet
       option search = /Tools/Synopsys/Hspice/hspice/parts/lin_tech
       option search = /Tools/Synopsys/Hspice/hspice/parts/pci
       option search = /Tools/Synopsys/Hspice/hspice/parts/signet
       option search = /Tools/Synopsys/Hspice/hspice/parts/ti
       option search = /Tools/Synopsys/Hspice/hspice/parts/tline
       option search = /Tools/Synopsys/Hspice/hspice/parts/xilinx
       option runlvl
       option delmax =    1.000E-09
       option probe
       option post =     2.00
       option artist =     2.00
       option ingold =     2.00
       option parhier = local
       option psf =     2.00
       option ivth =    1.000E-07
       option bypass =     0.00
 init: end read circuit files,  cpu clock=  1.67E+01 peak memory=       174 mb
 init: begin check errors,  cpu clock=  1.67E+01
 init: end check errors,  cpu clock=  1.67E+01 peak memory=       174 mb
 init: begin setup matrix, pivot=     0 cpu clock=  1.67E+01
       establish matrix -- done,  cpu clock=  1.67E+01 peak memory=       174 mb
       re-order matrix -- done,  cpu clock=  1.67E+01 peak memory=       174 mb
 init: end setup matrix,  cpu clock=  1.67E+01 peak memory=       174 mb
 dcop: begin dcop,  cpu clock=  1.67E+01
 dcop: end dcop,  cpu clock=  1.67E+01 peak memory=       174 mb  tot_iter=       4
 sweep: tran tran0    begin, stop_t=  5.00E-09 #sweeps=   2 cpu clock=  1.67E+01
 tran: time= 5.7500E-10 tot_iter=       6 conv_iter=       3 cpu clock= 1.67E+01
 tran: time= 1.0750E-09 tot_iter=      10 conv_iter=       5 cpu clock= 1.67E+01
 tran: time= 1.5750E-09 tot_iter=      14 conv_iter=       7 cpu clock= 1.67E+01
 tran: time= 2.0750E-09 tot_iter=      18 conv_iter=       9 cpu clock= 1.67E+01
 tran: time= 2.5750E-09 tot_iter=      22 conv_iter=      11 cpu clock= 1.67E+01
 tran: time= 3.0750E-09 tot_iter=      26 conv_iter=      13 cpu clock= 1.67E+01
 tran: time= 3.5750E-09 tot_iter=      30 conv_iter=      15 cpu clock= 1.67E+01
 tran: time= 4.0750E-09 tot_iter=      34 conv_iter=      17 cpu clock= 1.67E+01
 tran: time= 4.5750E-09 tot_iter=      38 conv_iter=      19 cpu clock= 1.67E+01
 tran: time= 5.0000E-09 tot_iter=      42 conv_iter=      21 cpu clock= 1.67E+01
 sweep: tran tran0    end,  cpu clock=  1.67E+01 peak memory=       174 mb
>info:         ***** hspice job concluded
 init: begin read circuit files,  cpu clock=  1.67E+01
       option search = /Tools/Synopsys/Hspice/hspice/parts/ad
       option search = /Tools/Synopsys/Hspice/hspice/parts/ad
       option search = /Tools/Synopsys/Hspice/hspice/parts/behave
       option search = /Tools/Synopsys/Hspice/hspice/parts/bjt
       option search = /Tools/Synopsys/Hspice/hspice/parts/burr_brn
       option search = /Tools/Synopsys/Hspice/hspice/parts/comlinear
       option search = /Tools/Synopsys/Hspice/hspice/parts/dio
       option search = /Tools/Synopsys/Hspice/hspice/parts/fet
       option search = /Tools/Synopsys/Hspice/hspice/parts/lin_tech
       option search = /Tools/Synopsys/Hspice/hspice/parts/pci
       option search = /Tools/Synopsys/Hspice/hspice/parts/signet
       option search = /Tools/Synopsys/Hspice/hspice/parts/ti
       option search = /Tools/Synopsys/Hspice/hspice/parts/tline
       option search = /Tools/Synopsys/Hspice/hspice/parts/xilinx
       option runlvl
       option delmax =    1.000E-09
       option probe
       option post =     2.00
       option artist =     2.00
       option ingold =     2.00
       option parhier = local
       option psf =     2.00
       option ivth =    1.000E-07
       option bypass =     0.00
 init: end read circuit files,  cpu clock=  1.67E+01 peak memory=       174 mb
 init: begin check errors,  cpu clock=  1.67E+01
 init: end check errors,  cpu clock=  1.67E+01 peak memory=       174 mb
 init: begin setup matrix, pivot=     0 cpu clock=  1.67E+01
       establish matrix -- done,  cpu clock=  1.67E+01 peak memory=       174 mb
       re-order matrix -- done,  cpu clock=  1.67E+01 peak memory=       174 mb
 init: end setup matrix,  cpu clock=  1.67E+01 peak memory=       174 mb
 dcop: begin dcop,  cpu clock=  1.67E+01
 dcop: end dcop,  cpu clock=  1.67E+01 peak memory=       174 mb  tot_iter=       4
 sweep: tran tran0    begin, stop_t=  5.00E-09 #sweeps=   2 cpu clock=  1.67E+01
 tran: time= 5.7500E-10 tot_iter=       6 conv_iter=       3 cpu clock= 1.67E+01
 tran: time= 1.0750E-09 tot_iter=      10 conv_iter=       5 cpu clock= 1.67E+01
 tran: time= 1.5750E-09 tot_iter=      14 conv_iter=       7 cpu clock= 1.67E+01
 tran: time= 2.0750E-09 tot_iter=      18 conv_iter=       9 cpu clock= 1.67E+01
 tran: time= 2.5750E-09 tot_iter=      22 conv_iter=      11 cpu clock= 1.67E+01
 tran: time= 3.0750E-09 tot_iter=      26 conv_iter=      13 cpu clock= 1.67E+01
 tran: time= 3.5750E-09 tot_iter=      30 conv_iter=      15 cpu clock= 1.67E+01
 tran: time= 4.0750E-09 tot_iter=      34 conv_iter=      17 cpu clock= 1.67E+01
 tran: time= 4.5750E-09 tot_iter=      38 conv_iter=      19 cpu clock= 1.67E+01
 tran: time= 5.0000E-09 tot_iter=      42 conv_iter=      21 cpu clock= 1.67E+01
 sweep: tran tran0    end,  cpu clock=  1.67E+01 peak memory=       174 mb
>info:         ***** hspice job concluded
 init: begin read circuit files,  cpu clock=  1.67E+01
       option search = /Tools/Synopsys/Hspice/hspice/parts/ad
       option search = /Tools/Synopsys/Hspice/hspice/parts/ad
       option search = /Tools/Synopsys/Hspice/hspice/parts/behave
       option search = /Tools/Synopsys/Hspice/hspice/parts/bjt
       option search = /Tools/Synopsys/Hspice/hspice/parts/burr_brn
       option search = /Tools/Synopsys/Hspice/hspice/parts/comlinear
       option search = /Tools/Synopsys/Hspice/hspice/parts/dio
       option search = /Tools/Synopsys/Hspice/hspice/parts/fet
       option search = /Tools/Synopsys/Hspice/hspice/parts/lin_tech
       option search = /Tools/Synopsys/Hspice/hspice/parts/pci
       option search = /Tools/Synopsys/Hspice/hspice/parts/signet
       option search = /Tools/Synopsys/Hspice/hspice/parts/ti
       option search = /Tools/Synopsys/Hspice/hspice/parts/tline
       option search = /Tools/Synopsys/Hspice/hspice/parts/xilinx
       option runlvl
       option delmax =    1.000E-09
       option probe
       option post =     2.00
       option artist =     2.00
       option ingold =     2.00
       option parhier = local
       option psf =     2.00
       option ivth =    1.000E-07
       option bypass =     0.00
 init: end read circuit files,  cpu clock=  1.67E+01 peak memory=       174 mb
 init: begin check errors,  cpu clock=  1.67E+01
 init: end check errors,  cpu clock=  1.67E+01 peak memory=       174 mb
 init: begin setup matrix, pivot=     0 cpu clock=  1.67E+01
       establish matrix -- done,  cpu clock=  1.67E+01 peak memory=       174 mb
       re-order matrix -- done,  cpu clock=  1.67E+01 peak memory=       174 mb
 init: end setup matrix,  cpu clock=  1.67E+01 peak memory=       174 mb
 dcop: begin dcop,  cpu clock=  1.67E+01
 dcop: end dcop,  cpu clock=  1.67E+01 peak memory=       174 mb  tot_iter=       4
 sweep: tran tran0    begin, stop_t=  5.00E-09 #sweeps=   2 cpu clock=  1.67E+01
 tran: time= 5.7500E-10 tot_iter=       6 conv_iter=       3 cpu clock= 1.67E+01
 tran: time= 1.0750E-09 tot_iter=      10 conv_iter=       5 cpu clock= 1.67E+01
 tran: time= 1.5750E-09 tot_iter=      14 conv_iter=       7 cpu clock= 1.67E+01
 tran: time= 2.0750E-09 tot_iter=      18 conv_iter=       9 cpu clock= 1.67E+01
 tran: time= 2.5750E-09 tot_iter=      22 conv_iter=      11 cpu clock= 1.67E+01
 tran: time= 3.0750E-09 tot_iter=      26 conv_iter=      13 cpu clock= 1.67E+01
 tran: time= 3.5750E-09 tot_iter=      30 conv_iter=      15 cpu clock= 1.67E+01
 tran: time= 4.0750E-09 tot_iter=      34 conv_iter=      17 cpu clock= 1.67E+01
 tran: time= 4.5750E-09 tot_iter=      38 conv_iter=      19 cpu clock= 1.67E+01
 tran: time= 5.0000E-09 tot_iter=      42 conv_iter=      21 cpu clock= 1.67E+01
 sweep: tran tran0    end,  cpu clock=  1.67E+01 peak memory=       174 mb
>info:         ***** hspice job concluded
 init: begin read circuit files,  cpu clock=  1.67E+01
       option search = /Tools/Synopsys/Hspice/hspice/parts/ad
       option search = /Tools/Synopsys/Hspice/hspice/parts/ad
       option search = /Tools/Synopsys/Hspice/hspice/parts/behave
       option search = /Tools/Synopsys/Hspice/hspice/parts/bjt
       option search = /Tools/Synopsys/Hspice/hspice/parts/burr_brn
       option search = /Tools/Synopsys/Hspice/hspice/parts/comlinear
       option search = /Tools/Synopsys/Hspice/hspice/parts/dio
       option search = /Tools/Synopsys/Hspice/hspice/parts/fet
       option search = /Tools/Synopsys/Hspice/hspice/parts/lin_tech
       option search = /Tools/Synopsys/Hspice/hspice/parts/pci
       option search = /Tools/Synopsys/Hspice/hspice/parts/signet
       option search = /Tools/Synopsys/Hspice/hspice/parts/ti
       option search = /Tools/Synopsys/Hspice/hspice/parts/tline
       option search = /Tools/Synopsys/Hspice/hspice/parts/xilinx
       option runlvl
       option delmax =    1.000E-09
       option probe
       option post =     2.00
       option artist =     2.00
       option ingold =     2.00
       option parhier = local
       option psf =     2.00
       option ivth =    1.000E-07
       option bypass =     0.00
 init: end read circuit files,  cpu clock=  1.67E+01 peak memory=       174 mb
 init: begin check errors,  cpu clock=  1.67E+01
 init: end check errors,  cpu clock=  1.67E+01 peak memory=       174 mb
 init: begin setup matrix, pivot=     0 cpu clock=  1.67E+01
       establish matrix -- done,  cpu clock=  1.67E+01 peak memory=       174 mb
       re-order matrix -- done,  cpu clock=  1.67E+01 peak memory=       174 mb
 init: end setup matrix,  cpu clock=  1.67E+01 peak memory=       174 mb
 dcop: begin dcop,  cpu clock=  1.67E+01
 dcop: end dcop,  cpu clock=  1.67E+01 peak memory=       174 mb  tot_iter=       4
 sweep: tran tran0    begin, stop_t=  5.00E-09 #sweeps=   2 cpu clock=  1.67E+01
 tran: time= 5.7500E-10 tot_iter=       6 conv_iter=       3 cpu clock= 1.67E+01
 tran: time= 1.0750E-09 tot_iter=      10 conv_iter=       5 cpu clock= 1.67E+01
 tran: time= 1.5750E-09 tot_iter=      14 conv_iter=       7 cpu clock= 1.67E+01
 tran: time= 2.0750E-09 tot_iter=      18 conv_iter=       9 cpu clock= 1.67E+01
 tran: time= 2.5750E-09 tot_iter=      22 conv_iter=      11 cpu clock= 1.67E+01
 tran: time= 3.0750E-09 tot_iter=      26 conv_iter=      13 cpu clock= 1.67E+01
 tran: time= 3.5750E-09 tot_iter=      30 conv_iter=      15 cpu clock= 1.67E+01
 tran: time= 4.0750E-09 tot_iter=      34 conv_iter=      17 cpu clock= 1.67E+01
 tran: time= 4.5750E-09 tot_iter=      38 conv_iter=      19 cpu clock= 1.67E+01
 tran: time= 5.0000E-09 tot_iter=      42 conv_iter=      21 cpu clock= 1.67E+01
 sweep: tran tran0    end,  cpu clock=  1.67E+01 peak memory=       174 mb
>info:         ***** hspice job concluded
 init: begin read circuit files,  cpu clock=  1.67E+01
       option search = /Tools/Synopsys/Hspice/hspice/parts/ad
       option search = /Tools/Synopsys/Hspice/hspice/parts/ad
       option search = /Tools/Synopsys/Hspice/hspice/parts/behave
       option search = /Tools/Synopsys/Hspice/hspice/parts/bjt
       option search = /Tools/Synopsys/Hspice/hspice/parts/burr_brn
       option search = /Tools/Synopsys/Hspice/hspice/parts/comlinear
       option search = /Tools/Synopsys/Hspice/hspice/parts/dio
       option search = /Tools/Synopsys/Hspice/hspice/parts/fet
       option search = /Tools/Synopsys/Hspice/hspice/parts/lin_tech
       option search = /Tools/Synopsys/Hspice/hspice/parts/pci
       option search = /Tools/Synopsys/Hspice/hspice/parts/signet
       option search = /Tools/Synopsys/Hspice/hspice/parts/ti
       option search = /Tools/Synopsys/Hspice/hspice/parts/tline
       option search = /Tools/Synopsys/Hspice/hspice/parts/xilinx
       option runlvl
       option delmax =    1.000E-09
       option probe
       option post =     2.00
       option artist =     2.00
       option ingold =     2.00
       option parhier = local
       option psf =     2.00
       option ivth =    1.000E-07
       option bypass =     0.00
 init: end read circuit files,  cpu clock=  1.67E+01 peak memory=       174 mb
 init: begin check errors,  cpu clock=  1.67E+01
 init: end check errors,  cpu clock=  1.67E+01 peak memory=       174 mb
 init: begin setup matrix, pivot=     0 cpu clock=  1.67E+01
       establish matrix -- done,  cpu clock=  1.67E+01 peak memory=       174 mb
       re-order matrix -- done,  cpu clock=  1.67E+01 peak memory=       174 mb
 init: end setup matrix,  cpu clock=  1.67E+01 peak memory=       174 mb
 dcop: begin dcop,  cpu clock=  1.67E+01
 dcop: end dcop,  cpu clock=  1.67E+01 peak memory=       174 mb  tot_iter=       4
 sweep: tran tran0    begin, stop_t=  5.00E-09 #sweeps=   2 cpu clock=  1.67E+01
 tran: time= 5.7500E-10 tot_iter=       6 conv_iter=       3 cpu clock= 1.67E+01
 tran: time= 1.0750E-09 tot_iter=      10 conv_iter=       5 cpu clock= 1.67E+01
 tran: time= 1.5750E-09 tot_iter=      14 conv_iter=       7 cpu clock= 1.67E+01
 tran: time= 2.0750E-09 tot_iter=      18 conv_iter=       9 cpu clock= 1.67E+01
 tran: time= 2.5750E-09 tot_iter=      22 conv_iter=      11 cpu clock= 1.67E+01
 tran: time= 3.0750E-09 tot_iter=      26 conv_iter=      13 cpu clock= 1.67E+01
 tran: time= 3.5750E-09 tot_iter=      30 conv_iter=      15 cpu clock= 1.67E+01
 tran: time= 4.0750E-09 tot_iter=      34 conv_iter=      17 cpu clock= 1.67E+01
 tran: time= 4.5750E-09 tot_iter=      38 conv_iter=      19 cpu clock= 1.67E+01
 tran: time= 5.0000E-09 tot_iter=      42 conv_iter=      21 cpu clock= 1.67E+01
 sweep: tran tran0    end,  cpu clock=  1.67E+01 peak memory=       174 mb
>info:         ***** hspice job concluded
 init: begin read circuit files,  cpu clock=  1.67E+01
       option search = /Tools/Synopsys/Hspice/hspice/parts/ad
       option search = /Tools/Synopsys/Hspice/hspice/parts/ad
       option search = /Tools/Synopsys/Hspice/hspice/parts/behave
       option search = /Tools/Synopsys/Hspice/hspice/parts/bjt
       option search = /Tools/Synopsys/Hspice/hspice/parts/burr_brn
       option search = /Tools/Synopsys/Hspice/hspice/parts/comlinear
       option search = /Tools/Synopsys/Hspice/hspice/parts/dio
       option search = /Tools/Synopsys/Hspice/hspice/parts/fet
       option search = /Tools/Synopsys/Hspice/hspice/parts/lin_tech
       option search = /Tools/Synopsys/Hspice/hspice/parts/pci
       option search = /Tools/Synopsys/Hspice/hspice/parts/signet
       option search = /Tools/Synopsys/Hspice/hspice/parts/ti
       option search = /Tools/Synopsys/Hspice/hspice/parts/tline
       option search = /Tools/Synopsys/Hspice/hspice/parts/xilinx
       option runlvl
       option delmax =    1.000E-09
       option probe
       option post =     2.00
       option artist =     2.00
       option ingold =     2.00
       option parhier = local
       option psf =     2.00
       option ivth =    1.000E-07
       option bypass =     0.00
 init: end read circuit files,  cpu clock=  1.67E+01 peak memory=       174 mb
 init: begin check errors,  cpu clock=  1.67E+01
 init: end check errors,  cpu clock=  1.67E+01 peak memory=       174 mb
 init: begin setup matrix, pivot=     0 cpu clock=  1.67E+01
       establish matrix -- done,  cpu clock=  1.67E+01 peak memory=       174 mb
       re-order matrix -- done,  cpu clock=  1.67E+01 peak memory=       174 mb
 init: end setup matrix,  cpu clock=  1.67E+01 peak memory=       174 mb
 dcop: begin dcop,  cpu clock=  1.67E+01
 dcop: end dcop,  cpu clock=  1.67E+01 peak memory=       174 mb  tot_iter=       4
 sweep: tran tran0    begin, stop_t=  5.00E-09 #sweeps=   2 cpu clock=  1.67E+01
 tran: time= 5.7500E-10 tot_iter=       6 conv_iter=       3 cpu clock= 1.67E+01
 tran: time= 1.0750E-09 tot_iter=      10 conv_iter=       5 cpu clock= 1.67E+01
 tran: time= 1.5750E-09 tot_iter=      14 conv_iter=       7 cpu clock= 1.67E+01
 tran: time= 2.0750E-09 tot_iter=      18 conv_iter=       9 cpu clock= 1.67E+01
 tran: time= 2.5750E-09 tot_iter=      22 conv_iter=      11 cpu clock= 1.67E+01
 tran: time= 3.0750E-09 tot_iter=      26 conv_iter=      13 cpu clock= 1.67E+01
 tran: time= 3.5750E-09 tot_iter=      30 conv_iter=      15 cpu clock= 1.67E+01
 tran: time= 4.0750E-09 tot_iter=      34 conv_iter=      17 cpu clock= 1.67E+01
 tran: time= 4.5750E-09 tot_iter=      38 conv_iter=      19 cpu clock= 1.67E+01
 tran: time= 5.0000E-09 tot_iter=      42 conv_iter=      21 cpu clock= 1.67E+01
 sweep: tran tran0    end,  cpu clock=  1.67E+01 peak memory=       174 mb
>info:         ***** hspice job concluded
 init: begin read circuit files,  cpu clock=  1.67E+01
       option search = /Tools/Synopsys/Hspice/hspice/parts/ad
       option search = /Tools/Synopsys/Hspice/hspice/parts/ad
       option search = /Tools/Synopsys/Hspice/hspice/parts/behave
       option search = /Tools/Synopsys/Hspice/hspice/parts/bjt
       option search = /Tools/Synopsys/Hspice/hspice/parts/burr_brn
       option search = /Tools/Synopsys/Hspice/hspice/parts/comlinear
       option search = /Tools/Synopsys/Hspice/hspice/parts/dio
       option search = /Tools/Synopsys/Hspice/hspice/parts/fet
       option search = /Tools/Synopsys/Hspice/hspice/parts/lin_tech
       option search = /Tools/Synopsys/Hspice/hspice/parts/pci
       option search = /Tools/Synopsys/Hspice/hspice/parts/signet
       option search = /Tools/Synopsys/Hspice/hspice/parts/ti
       option search = /Tools/Synopsys/Hspice/hspice/parts/tline
       option search = /Tools/Synopsys/Hspice/hspice/parts/xilinx
       option runlvl
       option delmax =    1.000E-09
       option probe
       option post =     2.00
       option artist =     2.00
       option ingold =     2.00
       option parhier = local
       option psf =     2.00
       option ivth =    1.000E-07
       option bypass =     0.00
 init: end read circuit files,  cpu clock=  1.67E+01 peak memory=       174 mb
 init: begin check errors,  cpu clock=  1.67E+01
 init: end check errors,  cpu clock=  1.67E+01 peak memory=       174 mb
 init: begin setup matrix, pivot=     0 cpu clock=  1.67E+01
       establish matrix -- done,  cpu clock=  1.67E+01 peak memory=       174 mb
       re-order matrix -- done,  cpu clock=  1.67E+01 peak memory=       174 mb
 init: end setup matrix,  cpu clock=  1.67E+01 peak memory=       174 mb
 dcop: begin dcop,  cpu clock=  1.67E+01
 dcop: end dcop,  cpu clock=  1.67E+01 peak memory=       174 mb  tot_iter=       4
 sweep: tran tran0    begin, stop_t=  5.00E-09 #sweeps=   2 cpu clock=  1.67E+01
 tran: time= 5.7500E-10 tot_iter=       6 conv_iter=       3 cpu clock= 1.67E+01
 tran: time= 1.0750E-09 tot_iter=      10 conv_iter=       5 cpu clock= 1.67E+01
 tran: time= 1.5750E-09 tot_iter=      14 conv_iter=       7 cpu clock= 1.67E+01
 tran: time= 2.0750E-09 tot_iter=      18 conv_iter=       9 cpu clock= 1.67E+01
 tran: time= 2.5750E-09 tot_iter=      22 conv_iter=      11 cpu clock= 1.67E+01
 tran: time= 3.0750E-09 tot_iter=      26 conv_iter=      13 cpu clock= 1.67E+01
 tran: time= 3.5750E-09 tot_iter=      30 conv_iter=      15 cpu clock= 1.67E+01
 tran: time= 4.0750E-09 tot_iter=      34 conv_iter=      17 cpu clock= 1.67E+01
 tran: time= 4.5750E-09 tot_iter=      38 conv_iter=      19 cpu clock= 1.67E+01
 tran: time= 5.0000E-09 tot_iter=      42 conv_iter=      21 cpu clock= 1.67E+01
 sweep: tran tran0    end,  cpu clock=  1.67E+01 peak memory=       174 mb
>info:         ***** hspice job concluded
 init: begin read circuit files,  cpu clock=  1.67E+01
       option search = /Tools/Synopsys/Hspice/hspice/parts/ad
       option search = /Tools/Synopsys/Hspice/hspice/parts/ad
       option search = /Tools/Synopsys/Hspice/hspice/parts/behave
       option search = /Tools/Synopsys/Hspice/hspice/parts/bjt
       option search = /Tools/Synopsys/Hspice/hspice/parts/burr_brn
       option search = /Tools/Synopsys/Hspice/hspice/parts/comlinear
       option search = /Tools/Synopsys/Hspice/hspice/parts/dio
       option search = /Tools/Synopsys/Hspice/hspice/parts/fet
       option search = /Tools/Synopsys/Hspice/hspice/parts/lin_tech
       option search = /Tools/Synopsys/Hspice/hspice/parts/pci
       option search = /Tools/Synopsys/Hspice/hspice/parts/signet
       option search = /Tools/Synopsys/Hspice/hspice/parts/ti
       option search = /Tools/Synopsys/Hspice/hspice/parts/tline
       option search = /Tools/Synopsys/Hspice/hspice/parts/xilinx
       option runlvl
       option delmax =    1.000E-09
       option probe
       option post =     2.00
       option artist =     2.00
       option ingold =     2.00
       option parhier = local
       option psf =     2.00
       option ivth =    1.000E-07
       option bypass =     0.00
 init: end read circuit files,  cpu clock=  1.67E+01 peak memory=       174 mb
 init: begin check errors,  cpu clock=  1.67E+01
 init: end check errors,  cpu clock=  1.67E+01 peak memory=       174 mb
 init: begin setup matrix, pivot=     0 cpu clock=  1.67E+01
       establish matrix -- done,  cpu clock=  1.67E+01 peak memory=       174 mb
       re-order matrix -- done,  cpu clock=  1.67E+01 peak memory=       174 mb
 init: end setup matrix,  cpu clock=  1.67E+01 peak memory=       174 mb
 dcop: begin dcop,  cpu clock=  1.67E+01
 dcop: end dcop,  cpu clock=  1.67E+01 peak memory=       174 mb  tot_iter=       4
 sweep: tran tran0    begin, stop_t=  5.00E-09 #sweeps=   2 cpu clock=  1.67E+01
 tran: time= 5.7500E-10 tot_iter=       6 conv_iter=       3 cpu clock= 1.67E+01
 tran: time= 1.0750E-09 tot_iter=      10 conv_iter=       5 cpu clock= 1.67E+01
 tran: time= 1.5750E-09 tot_iter=      14 conv_iter=       7 cpu clock= 1.67E+01
 tran: time= 2.0750E-09 tot_iter=      18 conv_iter=       9 cpu clock= 1.67E+01
 tran: time= 2.5750E-09 tot_iter=      22 conv_iter=      11 cpu clock= 1.67E+01
 tran: time= 3.0750E-09 tot_iter=      26 conv_iter=      13 cpu clock= 1.67E+01
 tran: time= 3.5750E-09 tot_iter=      30 conv_iter=      15 cpu clock= 1.67E+01
 tran: time= 4.0750E-09 tot_iter=      34 conv_iter=      17 cpu clock= 1.67E+01
 tran: time= 4.5750E-09 tot_iter=      38 conv_iter=      19 cpu clock= 1.67E+01
 tran: time= 5.0000E-09 tot_iter=      42 conv_iter=      21 cpu clock= 1.67E+01
 sweep: tran tran0    end,  cpu clock=  1.67E+01 peak memory=       174 mb
>info:         ***** hspice job concluded
 init: begin read circuit files,  cpu clock=  1.67E+01
       option search = /Tools/Synopsys/Hspice/hspice/parts/ad
       option search = /Tools/Synopsys/Hspice/hspice/parts/ad
       option search = /Tools/Synopsys/Hspice/hspice/parts/behave
       option search = /Tools/Synopsys/Hspice/hspice/parts/bjt
       option search = /Tools/Synopsys/Hspice/hspice/parts/burr_brn
       option search = /Tools/Synopsys/Hspice/hspice/parts/comlinear
       option search = /Tools/Synopsys/Hspice/hspice/parts/dio
       option search = /Tools/Synopsys/Hspice/hspice/parts/fet
       option search = /Tools/Synopsys/Hspice/hspice/parts/lin_tech
       option search = /Tools/Synopsys/Hspice/hspice/parts/pci
       option search = /Tools/Synopsys/Hspice/hspice/parts/signet
       option search = /Tools/Synopsys/Hspice/hspice/parts/ti
       option search = /Tools/Synopsys/Hspice/hspice/parts/tline
       option search = /Tools/Synopsys/Hspice/hspice/parts/xilinx
       option runlvl
       option delmax =    1.000E-09
       option probe
       option post =     2.00
       option artist =     2.00
       option ingold =     2.00
       option parhier = local
       option psf =     2.00
       option ivth =    1.000E-07
       option bypass =     0.00
 init: end read circuit files,  cpu clock=  1.67E+01 peak memory=       174 mb
 init: begin check errors,  cpu clock=  1.67E+01
 init: end check errors,  cpu clock=  1.67E+01 peak memory=       174 mb
 init: begin setup matrix, pivot=     0 cpu clock=  1.67E+01
       establish matrix -- done,  cpu clock=  1.67E+01 peak memory=       174 mb
       re-order matrix -- done,  cpu clock=  1.67E+01 peak memory=       174 mb
 init: end setup matrix,  cpu clock=  1.67E+01 peak memory=       174 mb
 dcop: begin dcop,  cpu clock=  1.67E+01
 dcop: end dcop,  cpu clock=  1.67E+01 peak memory=       174 mb  tot_iter=       4
 sweep: tran tran0    begin, stop_t=  5.00E-09 #sweeps=   2 cpu clock=  1.67E+01
 tran: time= 5.7500E-10 tot_iter=       6 conv_iter=       3 cpu clock= 1.67E+01
 tran: time= 1.0750E-09 tot_iter=      10 conv_iter=       5 cpu clock= 1.67E+01
 tran: time= 1.5750E-09 tot_iter=      14 conv_iter=       7 cpu clock= 1.67E+01
 tran: time= 2.0750E-09 tot_iter=      18 conv_iter=       9 cpu clock= 1.68E+01
 tran: time= 2.5750E-09 tot_iter=      22 conv_iter=      11 cpu clock= 1.68E+01
 tran: time= 3.0750E-09 tot_iter=      26 conv_iter=      13 cpu clock= 1.68E+01
 tran: time= 3.5750E-09 tot_iter=      30 conv_iter=      15 cpu clock= 1.68E+01
 tran: time= 4.0750E-09 tot_iter=      34 conv_iter=      17 cpu clock= 1.68E+01
 tran: time= 4.5750E-09 tot_iter=      38 conv_iter=      19 cpu clock= 1.68E+01
 tran: time= 5.0000E-09 tot_iter=      42 conv_iter=      21 cpu clock= 1.68E+01
 sweep: tran tran0    end,  cpu clock=  1.68E+01 peak memory=       174 mb
>info:         ***** hspice job concluded
 init: begin read circuit files,  cpu clock=  1.68E+01
       option search = /Tools/Synopsys/Hspice/hspice/parts/ad
       option search = /Tools/Synopsys/Hspice/hspice/parts/ad
       option search = /Tools/Synopsys/Hspice/hspice/parts/behave
       option search = /Tools/Synopsys/Hspice/hspice/parts/bjt
       option search = /Tools/Synopsys/Hspice/hspice/parts/burr_brn
       option search = /Tools/Synopsys/Hspice/hspice/parts/comlinear
       option search = /Tools/Synopsys/Hspice/hspice/parts/dio
       option search = /Tools/Synopsys/Hspice/hspice/parts/fet
       option search = /Tools/Synopsys/Hspice/hspice/parts/lin_tech
       option search = /Tools/Synopsys/Hspice/hspice/parts/pci
       option search = /Tools/Synopsys/Hspice/hspice/parts/signet
       option search = /Tools/Synopsys/Hspice/hspice/parts/ti
       option search = /Tools/Synopsys/Hspice/hspice/parts/tline
       option search = /Tools/Synopsys/Hspice/hspice/parts/xilinx
       option runlvl
       option delmax =    1.000E-09
       option probe
       option post =     2.00
       option artist =     2.00
       option ingold =     2.00
       option parhier = local
       option psf =     2.00
       option ivth =    1.000E-07
       option bypass =     0.00
 init: end read circuit files,  cpu clock=  1.68E+01 peak memory=       174 mb
 init: begin check errors,  cpu clock=  1.68E+01
 init: end check errors,  cpu clock=  1.68E+01 peak memory=       174 mb
 init: begin setup matrix, pivot=     0 cpu clock=  1.68E+01
       establish matrix -- done,  cpu clock=  1.68E+01 peak memory=       174 mb
       re-order matrix -- done,  cpu clock=  1.68E+01 peak memory=       174 mb
 init: end setup matrix,  cpu clock=  1.68E+01 peak memory=       174 mb
 dcop: begin dcop,  cpu clock=  1.68E+01
 dcop: end dcop,  cpu clock=  1.68E+01 peak memory=       174 mb  tot_iter=       4
 sweep: tran tran0    begin, stop_t=  5.00E-09 #sweeps=   2 cpu clock=  1.68E+01
 tran: time= 5.7500E-10 tot_iter=       6 conv_iter=       3 cpu clock= 1.68E+01
 tran: time= 1.0750E-09 tot_iter=      10 conv_iter=       5 cpu clock= 1.68E+01
 tran: time= 1.5750E-09 tot_iter=      14 conv_iter=       7 cpu clock= 1.68E+01
 tran: time= 2.0750E-09 tot_iter=      18 conv_iter=       9 cpu clock= 1.68E+01
 tran: time= 2.5750E-09 tot_iter=      22 conv_iter=      11 cpu clock= 1.68E+01
 tran: time= 3.0750E-09 tot_iter=      26 conv_iter=      13 cpu clock= 1.68E+01
 tran: time= 3.5750E-09 tot_iter=      30 conv_iter=      15 cpu clock= 1.68E+01
 tran: time= 4.0750E-09 tot_iter=      34 conv_iter=      17 cpu clock= 1.68E+01
 tran: time= 4.5750E-09 tot_iter=      38 conv_iter=      19 cpu clock= 1.68E+01
 tran: time= 5.0000E-09 tot_iter=      42 conv_iter=      21 cpu clock= 1.68E+01
 sweep: tran tran0    end,  cpu clock=  1.68E+01 peak memory=       174 mb
>info:         ***** hspice job concluded
 init: begin read circuit files,  cpu clock=  1.68E+01
       option search = /Tools/Synopsys/Hspice/hspice/parts/ad
       option search = /Tools/Synopsys/Hspice/hspice/parts/ad
       option search = /Tools/Synopsys/Hspice/hspice/parts/behave
       option search = /Tools/Synopsys/Hspice/hspice/parts/bjt
       option search = /Tools/Synopsys/Hspice/hspice/parts/burr_brn
       option search = /Tools/Synopsys/Hspice/hspice/parts/comlinear
       option search = /Tools/Synopsys/Hspice/hspice/parts/dio
       option search = /Tools/Synopsys/Hspice/hspice/parts/fet
       option search = /Tools/Synopsys/Hspice/hspice/parts/lin_tech
       option search = /Tools/Synopsys/Hspice/hspice/parts/pci
       option search = /Tools/Synopsys/Hspice/hspice/parts/signet
       option search = /Tools/Synopsys/Hspice/hspice/parts/ti
       option search = /Tools/Synopsys/Hspice/hspice/parts/tline
       option search = /Tools/Synopsys/Hspice/hspice/parts/xilinx
       option runlvl
       option delmax =    1.000E-09
       option probe
       option post =     2.00
       option artist =     2.00
       option ingold =     2.00
       option parhier = local
       option psf =     2.00
       option ivth =    1.000E-07
       option bypass =     0.00
 init: end read circuit files,  cpu clock=  1.68E+01 peak memory=       174 mb
 init: begin check errors,  cpu clock=  1.68E+01
 init: end check errors,  cpu clock=  1.68E+01 peak memory=       174 mb
 init: begin setup matrix, pivot=     0 cpu clock=  1.68E+01
       establish matrix -- done,  cpu clock=  1.68E+01 peak memory=       174 mb
       re-order matrix -- done,  cpu clock=  1.68E+01 peak memory=       174 mb
 init: end setup matrix,  cpu clock=  1.68E+01 peak memory=       174 mb
 dcop: begin dcop,  cpu clock=  1.68E+01
 dcop: end dcop,  cpu clock=  1.68E+01 peak memory=       174 mb  tot_iter=       4
 sweep: tran tran0    begin, stop_t=  5.00E-09 #sweeps=   2 cpu clock=  1.68E+01
 tran: time= 5.7500E-10 tot_iter=       6 conv_iter=       3 cpu clock= 1.68E+01
 tran: time= 1.0750E-09 tot_iter=      10 conv_iter=       5 cpu clock= 1.68E+01
 tran: time= 1.5750E-09 tot_iter=      14 conv_iter=       7 cpu clock= 1.68E+01
 tran: time= 2.0750E-09 tot_iter=      18 conv_iter=       9 cpu clock= 1.68E+01
 tran: time= 2.5750E-09 tot_iter=      22 conv_iter=      11 cpu clock= 1.68E+01
 tran: time= 3.0750E-09 tot_iter=      26 conv_iter=      13 cpu clock= 1.68E+01
 tran: time= 3.5750E-09 tot_iter=      30 conv_iter=      15 cpu clock= 1.68E+01
 tran: time= 4.0750E-09 tot_iter=      34 conv_iter=      17 cpu clock= 1.68E+01
 tran: time= 4.5750E-09 tot_iter=      38 conv_iter=      19 cpu clock= 1.68E+01
 tran: time= 5.0000E-09 tot_iter=      42 conv_iter=      21 cpu clock= 1.68E+01
 sweep: tran tran0    end,  cpu clock=  1.68E+01 peak memory=       174 mb
>info:         ***** hspice job concluded
 init: begin read circuit files,  cpu clock=  1.68E+01
       option search = /Tools/Synopsys/Hspice/hspice/parts/ad
       option search = /Tools/Synopsys/Hspice/hspice/parts/ad
       option search = /Tools/Synopsys/Hspice/hspice/parts/behave
       option search = /Tools/Synopsys/Hspice/hspice/parts/bjt
       option search = /Tools/Synopsys/Hspice/hspice/parts/burr_brn
       option search = /Tools/Synopsys/Hspice/hspice/parts/comlinear
       option search = /Tools/Synopsys/Hspice/hspice/parts/dio
       option search = /Tools/Synopsys/Hspice/hspice/parts/fet
       option search = /Tools/Synopsys/Hspice/hspice/parts/lin_tech
       option search = /Tools/Synopsys/Hspice/hspice/parts/pci
       option search = /Tools/Synopsys/Hspice/hspice/parts/signet
       option search = /Tools/Synopsys/Hspice/hspice/parts/ti
       option search = /Tools/Synopsys/Hspice/hspice/parts/tline
       option search = /Tools/Synopsys/Hspice/hspice/parts/xilinx
       option runlvl
       option delmax =    1.000E-09
       option probe
       option post =     2.00
       option artist =     2.00
       option ingold =     2.00
       option parhier = local
       option psf =     2.00
       option ivth =    1.000E-07
       option bypass =     0.00
 init: end read circuit files,  cpu clock=  1.68E+01 peak memory=       174 mb
 init: begin check errors,  cpu clock=  1.68E+01
 init: end check errors,  cpu clock=  1.68E+01 peak memory=       174 mb
 init: begin setup matrix, pivot=     0 cpu clock=  1.68E+01
       establish matrix -- done,  cpu clock=  1.68E+01 peak memory=       174 mb
       re-order matrix -- done,  cpu clock=  1.68E+01 peak memory=       174 mb
 init: end setup matrix,  cpu clock=  1.68E+01 peak memory=       174 mb
 dcop: begin dcop,  cpu clock=  1.68E+01
 dcop: end dcop,  cpu clock=  1.68E+01 peak memory=       174 mb  tot_iter=       4
 sweep: tran tran0    begin, stop_t=  5.00E-09 #sweeps=   2 cpu clock=  1.68E+01
 tran: time= 5.7500E-10 tot_iter=       6 conv_iter=       3 cpu clock= 1.68E+01
 tran: time= 1.0750E-09 tot_iter=      10 conv_iter=       5 cpu clock= 1.68E+01
 tran: time= 1.5750E-09 tot_iter=      14 conv_iter=       7 cpu clock= 1.68E+01
 tran: time= 2.0750E-09 tot_iter=      18 conv_iter=       9 cpu clock= 1.68E+01
 tran: time= 2.5750E-09 tot_iter=      22 conv_iter=      11 cpu clock= 1.68E+01
 tran: time= 3.0750E-09 tot_iter=      26 conv_iter=      13 cpu clock= 1.68E+01
 tran: time= 3.5750E-09 tot_iter=      30 conv_iter=      15 cpu clock= 1.68E+01
 tran: time= 4.0750E-09 tot_iter=      34 conv_iter=      17 cpu clock= 1.68E+01
 tran: time= 4.5750E-09 tot_iter=      38 conv_iter=      19 cpu clock= 1.68E+01
 tran: time= 5.0000E-09 tot_iter=      42 conv_iter=      21 cpu clock= 1.68E+01
 sweep: tran tran0    end,  cpu clock=  1.68E+01 peak memory=       174 mb
>info:         ***** hspice job concluded
 init: begin read circuit files,  cpu clock=  1.68E+01
       option search = /Tools/Synopsys/Hspice/hspice/parts/ad
       option search = /Tools/Synopsys/Hspice/hspice/parts/ad
       option search = /Tools/Synopsys/Hspice/hspice/parts/behave
       option search = /Tools/Synopsys/Hspice/hspice/parts/bjt
       option search = /Tools/Synopsys/Hspice/hspice/parts/burr_brn
       option search = /Tools/Synopsys/Hspice/hspice/parts/comlinear
       option search = /Tools/Synopsys/Hspice/hspice/parts/dio
       option search = /Tools/Synopsys/Hspice/hspice/parts/fet
       option search = /Tools/Synopsys/Hspice/hspice/parts/lin_tech
       option search = /Tools/Synopsys/Hspice/hspice/parts/pci
       option search = /Tools/Synopsys/Hspice/hspice/parts/signet
       option search = /Tools/Synopsys/Hspice/hspice/parts/ti
       option search = /Tools/Synopsys/Hspice/hspice/parts/tline
       option search = /Tools/Synopsys/Hspice/hspice/parts/xilinx
       option runlvl
       option delmax =    1.000E-09
       option probe
       option post =     2.00
       option artist =     2.00
       option ingold =     2.00
       option parhier = local
       option psf =     2.00
       option ivth =    1.000E-07
       option bypass =     0.00
 init: end read circuit files,  cpu clock=  1.68E+01 peak memory=       174 mb
 init: begin check errors,  cpu clock=  1.68E+01
 init: end check errors,  cpu clock=  1.68E+01 peak memory=       174 mb
 init: begin setup matrix, pivot=     0 cpu clock=  1.68E+01
       establish matrix -- done,  cpu clock=  1.68E+01 peak memory=       174 mb
       re-order matrix -- done,  cpu clock=  1.68E+01 peak memory=       174 mb
 init: end setup matrix,  cpu clock=  1.68E+01 peak memory=       174 mb
 dcop: begin dcop,  cpu clock=  1.68E+01
 dcop: end dcop,  cpu clock=  1.68E+01 peak memory=       174 mb  tot_iter=       4
 sweep: tran tran0    begin, stop_t=  5.00E-09 #sweeps=   2 cpu clock=  1.68E+01
 tran: time= 5.7500E-10 tot_iter=       6 conv_iter=       3 cpu clock= 1.68E+01
 tran: time= 1.0750E-09 tot_iter=      10 conv_iter=       5 cpu clock= 1.68E+01
 tran: time= 1.5750E-09 tot_iter=      14 conv_iter=       7 cpu clock= 1.68E+01
 tran: time= 2.0750E-09 tot_iter=      18 conv_iter=       9 cpu clock= 1.68E+01
 tran: time= 2.5750E-09 tot_iter=      22 conv_iter=      11 cpu clock= 1.68E+01
 tran: time= 3.0750E-09 tot_iter=      26 conv_iter=      13 cpu clock= 1.68E+01
 tran: time= 3.5750E-09 tot_iter=      30 conv_iter=      15 cpu clock= 1.68E+01
 tran: time= 4.0750E-09 tot_iter=      34 conv_iter=      17 cpu clock= 1.68E+01
 tran: time= 4.5750E-09 tot_iter=      38 conv_iter=      19 cpu clock= 1.68E+01
 tran: time= 5.0000E-09 tot_iter=      42 conv_iter=      21 cpu clock= 1.68E+01
 sweep: tran tran0    end,  cpu clock=  1.68E+01 peak memory=       174 mb
>info:         ***** hspice job concluded
 init: begin read circuit files,  cpu clock=  1.68E+01
       option search = /Tools/Synopsys/Hspice/hspice/parts/ad
       option search = /Tools/Synopsys/Hspice/hspice/parts/ad
       option search = /Tools/Synopsys/Hspice/hspice/parts/behave
       option search = /Tools/Synopsys/Hspice/hspice/parts/bjt
       option search = /Tools/Synopsys/Hspice/hspice/parts/burr_brn
       option search = /Tools/Synopsys/Hspice/hspice/parts/comlinear
       option search = /Tools/Synopsys/Hspice/hspice/parts/dio
       option search = /Tools/Synopsys/Hspice/hspice/parts/fet
       option search = /Tools/Synopsys/Hspice/hspice/parts/lin_tech
       option search = /Tools/Synopsys/Hspice/hspice/parts/pci
       option search = /Tools/Synopsys/Hspice/hspice/parts/signet
       option search = /Tools/Synopsys/Hspice/hspice/parts/ti
       option search = /Tools/Synopsys/Hspice/hspice/parts/tline
       option search = /Tools/Synopsys/Hspice/hspice/parts/xilinx
       option runlvl
       option delmax =    1.000E-09
       option probe
       option post =     2.00
       option artist =     2.00
       option ingold =     2.00
       option parhier = local
       option psf =     2.00
       option ivth =    1.000E-07
       option bypass =     0.00
 init: end read circuit files,  cpu clock=  1.68E+01 peak memory=       174 mb
 init: begin check errors,  cpu clock=  1.68E+01
 init: end check errors,  cpu clock=  1.68E+01 peak memory=       174 mb
 init: begin setup matrix, pivot=     0 cpu clock=  1.68E+01
       establish matrix -- done,  cpu clock=  1.68E+01 peak memory=       174 mb
       re-order matrix -- done,  cpu clock=  1.68E+01 peak memory=       174 mb
 init: end setup matrix,  cpu clock=  1.68E+01 peak memory=       174 mb
 dcop: begin dcop,  cpu clock=  1.68E+01
 dcop: end dcop,  cpu clock=  1.68E+01 peak memory=       174 mb  tot_iter=       4
 sweep: tran tran0    begin, stop_t=  5.00E-09 #sweeps=   2 cpu clock=  1.68E+01
 tran: time= 5.7500E-10 tot_iter=       6 conv_iter=       3 cpu clock= 1.68E+01
 tran: time= 1.0750E-09 tot_iter=      10 conv_iter=       5 cpu clock= 1.68E+01
 tran: time= 1.5750E-09 tot_iter=      14 conv_iter=       7 cpu clock= 1.68E+01
 tran: time= 2.0750E-09 tot_iter=      18 conv_iter=       9 cpu clock= 1.68E+01
 tran: time= 2.5750E-09 tot_iter=      22 conv_iter=      11 cpu clock= 1.68E+01
 tran: time= 3.0750E-09 tot_iter=      26 conv_iter=      13 cpu clock= 1.68E+01
 tran: time= 3.5750E-09 tot_iter=      30 conv_iter=      15 cpu clock= 1.68E+01
 tran: time= 4.0750E-09 tot_iter=      34 conv_iter=      17 cpu clock= 1.68E+01
 tran: time= 4.5750E-09 tot_iter=      38 conv_iter=      19 cpu clock= 1.68E+01
 tran: time= 5.0000E-09 tot_iter=      42 conv_iter=      21 cpu clock= 1.68E+01
 sweep: tran tran0    end,  cpu clock=  1.68E+01 peak memory=       174 mb
>info:         ***** hspice job concluded
 init: begin read circuit files,  cpu clock=  1.68E+01
       option search = /Tools/Synopsys/Hspice/hspice/parts/ad
       option search = /Tools/Synopsys/Hspice/hspice/parts/ad
       option search = /Tools/Synopsys/Hspice/hspice/parts/behave
       option search = /Tools/Synopsys/Hspice/hspice/parts/bjt
       option search = /Tools/Synopsys/Hspice/hspice/parts/burr_brn
       option search = /Tools/Synopsys/Hspice/hspice/parts/comlinear
       option search = /Tools/Synopsys/Hspice/hspice/parts/dio
       option search = /Tools/Synopsys/Hspice/hspice/parts/fet
       option search = /Tools/Synopsys/Hspice/hspice/parts/lin_tech
       option search = /Tools/Synopsys/Hspice/hspice/parts/pci
       option search = /Tools/Synopsys/Hspice/hspice/parts/signet
       option search = /Tools/Synopsys/Hspice/hspice/parts/ti
       option search = /Tools/Synopsys/Hspice/hspice/parts/tline
       option search = /Tools/Synopsys/Hspice/hspice/parts/xilinx
       option runlvl
       option delmax =    1.000E-09
       option probe
       option post =     2.00
       option artist =     2.00
       option ingold =     2.00
       option parhier = local
       option psf =     2.00
       option ivth =    1.000E-07
       option bypass =     0.00
 init: end read circuit files,  cpu clock=  1.68E+01 peak memory=       174 mb
 init: begin check errors,  cpu clock=  1.68E+01
 init: end check errors,  cpu clock=  1.68E+01 peak memory=       174 mb
 init: begin setup matrix, pivot=     0 cpu clock=  1.68E+01
       establish matrix -- done,  cpu clock=  1.68E+01 peak memory=       174 mb
       re-order matrix -- done,  cpu clock=  1.68E+01 peak memory=       174 mb
 init: end setup matrix,  cpu clock=  1.68E+01 peak memory=       174 mb
 dcop: begin dcop,  cpu clock=  1.68E+01
 dcop: end dcop,  cpu clock=  1.68E+01 peak memory=       174 mb  tot_iter=       4
 sweep: tran tran0    begin, stop_t=  5.00E-09 #sweeps=   2 cpu clock=  1.68E+01
 tran: time= 5.7500E-10 tot_iter=       6 conv_iter=       3 cpu clock= 1.68E+01
 tran: time= 1.0750E-09 tot_iter=      10 conv_iter=       5 cpu clock= 1.68E+01
 tran: time= 1.5750E-09 tot_iter=      14 conv_iter=       7 cpu clock= 1.68E+01
 tran: time= 2.0750E-09 tot_iter=      18 conv_iter=       9 cpu clock= 1.68E+01
 tran: time= 2.5750E-09 tot_iter=      22 conv_iter=      11 cpu clock= 1.68E+01
 tran: time= 3.0750E-09 tot_iter=      26 conv_iter=      13 cpu clock= 1.68E+01
 tran: time= 3.5750E-09 tot_iter=      30 conv_iter=      15 cpu clock= 1.68E+01
 tran: time= 4.0750E-09 tot_iter=      34 conv_iter=      17 cpu clock= 1.68E+01
 tran: time= 4.5750E-09 tot_iter=      38 conv_iter=      19 cpu clock= 1.68E+01
 tran: time= 5.0000E-09 tot_iter=      42 conv_iter=      21 cpu clock= 1.68E+01
 sweep: tran tran0    end,  cpu clock=  1.68E+01 peak memory=       174 mb
>info:         ***** hspice job concluded
 init: begin read circuit files,  cpu clock=  1.68E+01
       option search = /Tools/Synopsys/Hspice/hspice/parts/ad
       option search = /Tools/Synopsys/Hspice/hspice/parts/ad
       option search = /Tools/Synopsys/Hspice/hspice/parts/behave
       option search = /Tools/Synopsys/Hspice/hspice/parts/bjt
       option search = /Tools/Synopsys/Hspice/hspice/parts/burr_brn
       option search = /Tools/Synopsys/Hspice/hspice/parts/comlinear
       option search = /Tools/Synopsys/Hspice/hspice/parts/dio
       option search = /Tools/Synopsys/Hspice/hspice/parts/fet
       option search = /Tools/Synopsys/Hspice/hspice/parts/lin_tech
       option search = /Tools/Synopsys/Hspice/hspice/parts/pci
       option search = /Tools/Synopsys/Hspice/hspice/parts/signet
       option search = /Tools/Synopsys/Hspice/hspice/parts/ti
       option search = /Tools/Synopsys/Hspice/hspice/parts/tline
       option search = /Tools/Synopsys/Hspice/hspice/parts/xilinx
       option runlvl
       option delmax =    1.000E-09
       option probe
       option post =     2.00
       option artist =     2.00
       option ingold =     2.00
       option parhier = local
       option psf =     2.00
       option ivth =    1.000E-07
       option bypass =     0.00
 init: end read circuit files,  cpu clock=  1.68E+01 peak memory=       174 mb
 init: begin check errors,  cpu clock=  1.68E+01
 init: end check errors,  cpu clock=  1.68E+01 peak memory=       174 mb
 init: begin setup matrix, pivot=     0 cpu clock=  1.68E+01
       establish matrix -- done,  cpu clock=  1.68E+01 peak memory=       174 mb
       re-order matrix -- done,  cpu clock=  1.68E+01 peak memory=       174 mb
 init: end setup matrix,  cpu clock=  1.68E+01 peak memory=       174 mb
 dcop: begin dcop,  cpu clock=  1.68E+01
 dcop: end dcop,  cpu clock=  1.68E+01 peak memory=       174 mb  tot_iter=       4
 sweep: tran tran0    begin, stop_t=  5.00E-09 #sweeps=   2 cpu clock=  1.68E+01
 tran: time= 5.7500E-10 tot_iter=       6 conv_iter=       3 cpu clock= 1.68E+01
 tran: time= 1.0750E-09 tot_iter=      10 conv_iter=       5 cpu clock= 1.68E+01
 tran: time= 1.5750E-09 tot_iter=      14 conv_iter=       7 cpu clock= 1.68E+01
 tran: time= 2.0750E-09 tot_iter=      18 conv_iter=       9 cpu clock= 1.68E+01
 tran: time= 2.5750E-09 tot_iter=      22 conv_iter=      11 cpu clock= 1.68E+01
 tran: time= 3.0750E-09 tot_iter=      26 conv_iter=      13 cpu clock= 1.68E+01
 tran: time= 3.5750E-09 tot_iter=      30 conv_iter=      15 cpu clock= 1.68E+01
 tran: time= 4.0750E-09 tot_iter=      34 conv_iter=      17 cpu clock= 1.68E+01
 tran: time= 4.5750E-09 tot_iter=      38 conv_iter=      19 cpu clock= 1.68E+01
 tran: time= 5.0000E-09 tot_iter=      42 conv_iter=      21 cpu clock= 1.68E+01
 sweep: tran tran0    end,  cpu clock=  1.68E+01 peak memory=       174 mb
>info:         ***** hspice job concluded
 init: begin read circuit files,  cpu clock=  1.68E+01
       option search = /Tools/Synopsys/Hspice/hspice/parts/ad
       option search = /Tools/Synopsys/Hspice/hspice/parts/ad
       option search = /Tools/Synopsys/Hspice/hspice/parts/behave
       option search = /Tools/Synopsys/Hspice/hspice/parts/bjt
       option search = /Tools/Synopsys/Hspice/hspice/parts/burr_brn
       option search = /Tools/Synopsys/Hspice/hspice/parts/comlinear
       option search = /Tools/Synopsys/Hspice/hspice/parts/dio
       option search = /Tools/Synopsys/Hspice/hspice/parts/fet
       option search = /Tools/Synopsys/Hspice/hspice/parts/lin_tech
       option search = /Tools/Synopsys/Hspice/hspice/parts/pci
       option search = /Tools/Synopsys/Hspice/hspice/parts/signet
       option search = /Tools/Synopsys/Hspice/hspice/parts/ti
       option search = /Tools/Synopsys/Hspice/hspice/parts/tline
       option search = /Tools/Synopsys/Hspice/hspice/parts/xilinx
       option runlvl
       option delmax =    1.000E-09
       option probe
       option post =     2.00
       option artist =     2.00
       option ingold =     2.00
       option parhier = local
       option psf =     2.00
       option ivth =    1.000E-07
       option bypass =     0.00
 init: end read circuit files,  cpu clock=  1.68E+01 peak memory=       174 mb
 init: begin check errors,  cpu clock=  1.68E+01
 init: end check errors,  cpu clock=  1.68E+01 peak memory=       174 mb
 init: begin setup matrix, pivot=     0 cpu clock=  1.68E+01
       establish matrix -- done,  cpu clock=  1.68E+01 peak memory=       174 mb
       re-order matrix -- done,  cpu clock=  1.68E+01 peak memory=       174 mb
 init: end setup matrix,  cpu clock=  1.68E+01 peak memory=       174 mb
 dcop: begin dcop,  cpu clock=  1.68E+01
 dcop: end dcop,  cpu clock=  1.68E+01 peak memory=       174 mb  tot_iter=       4
 sweep: tran tran0    begin, stop_t=  5.00E-09 #sweeps=   2 cpu clock=  1.68E+01
 tran: time= 5.7500E-10 tot_iter=       6 conv_iter=       3 cpu clock= 1.68E+01
 tran: time= 1.0750E-09 tot_iter=      10 conv_iter=       5 cpu clock= 1.68E+01
 tran: time= 1.5750E-09 tot_iter=      14 conv_iter=       7 cpu clock= 1.68E+01
 tran: time= 2.0750E-09 tot_iter=      18 conv_iter=       9 cpu clock= 1.68E+01
 tran: time= 2.5750E-09 tot_iter=      22 conv_iter=      11 cpu clock= 1.68E+01
 tran: time= 3.0750E-09 tot_iter=      26 conv_iter=      13 cpu clock= 1.68E+01
 tran: time= 3.5750E-09 tot_iter=      30 conv_iter=      15 cpu clock= 1.68E+01
 tran: time= 4.0750E-09 tot_iter=      34 conv_iter=      17 cpu clock= 1.68E+01
 tran: time= 4.5750E-09 tot_iter=      38 conv_iter=      19 cpu clock= 1.68E+01
 tran: time= 5.0000E-09 tot_iter=      42 conv_iter=      21 cpu clock= 1.68E+01
 sweep: tran tran0    end,  cpu clock=  1.68E+01 peak memory=       174 mb
>info:         ***** hspice job concluded
 init: begin read circuit files,  cpu clock=  1.68E+01
       option search = /Tools/Synopsys/Hspice/hspice/parts/ad
       option search = /Tools/Synopsys/Hspice/hspice/parts/ad
       option search = /Tools/Synopsys/Hspice/hspice/parts/behave
       option search = /Tools/Synopsys/Hspice/hspice/parts/bjt
       option search = /Tools/Synopsys/Hspice/hspice/parts/burr_brn
       option search = /Tools/Synopsys/Hspice/hspice/parts/comlinear
       option search = /Tools/Synopsys/Hspice/hspice/parts/dio
       option search = /Tools/Synopsys/Hspice/hspice/parts/fet
       option search = /Tools/Synopsys/Hspice/hspice/parts/lin_tech
       option search = /Tools/Synopsys/Hspice/hspice/parts/pci
       option search = /Tools/Synopsys/Hspice/hspice/parts/signet
       option search = /Tools/Synopsys/Hspice/hspice/parts/ti
       option search = /Tools/Synopsys/Hspice/hspice/parts/tline
       option search = /Tools/Synopsys/Hspice/hspice/parts/xilinx
       option runlvl
       option delmax =    1.000E-09
       option probe
       option post =     2.00
       option artist =     2.00
       option ingold =     2.00
       option parhier = local
       option psf =     2.00
       option ivth =    1.000E-07
       option bypass =     0.00
 init: end read circuit files,  cpu clock=  1.68E+01 peak memory=       174 mb
 init: begin check errors,  cpu clock=  1.68E+01
 init: end check errors,  cpu clock=  1.68E+01 peak memory=       174 mb
 init: begin setup matrix, pivot=     0 cpu clock=  1.68E+01
       establish matrix -- done,  cpu clock=  1.68E+01 peak memory=       174 mb
       re-order matrix -- done,  cpu clock=  1.68E+01 peak memory=       174 mb
 init: end setup matrix,  cpu clock=  1.68E+01 peak memory=       174 mb
 dcop: begin dcop,  cpu clock=  1.68E+01
 dcop: end dcop,  cpu clock=  1.68E+01 peak memory=       174 mb  tot_iter=       4
 sweep: tran tran0    begin, stop_t=  5.00E-09 #sweeps=   2 cpu clock=  1.68E+01
 tran: time= 5.7500E-10 tot_iter=       6 conv_iter=       3 cpu clock= 1.68E+01
 tran: time= 1.0750E-09 tot_iter=      10 conv_iter=       5 cpu clock= 1.68E+01
 tran: time= 1.5750E-09 tot_iter=      14 conv_iter=       7 cpu clock= 1.68E+01
 tran: time= 2.0750E-09 tot_iter=      18 conv_iter=       9 cpu clock= 1.68E+01
 tran: time= 2.5750E-09 tot_iter=      22 conv_iter=      11 cpu clock= 1.68E+01
 tran: time= 3.0750E-09 tot_iter=      26 conv_iter=      13 cpu clock= 1.68E+01
 tran: time= 3.5750E-09 tot_iter=      30 conv_iter=      15 cpu clock= 1.68E+01
 tran: time= 4.0750E-09 tot_iter=      34 conv_iter=      17 cpu clock= 1.68E+01
 tran: time= 4.5750E-09 tot_iter=      38 conv_iter=      19 cpu clock= 1.68E+01
 tran: time= 5.0000E-09 tot_iter=      42 conv_iter=      21 cpu clock= 1.68E+01
 sweep: tran tran0    end,  cpu clock=  1.68E+01 peak memory=       174 mb
>info:         ***** hspice job concluded
 init: begin read circuit files,  cpu clock=  1.68E+01
       option search = /Tools/Synopsys/Hspice/hspice/parts/ad
       option search = /Tools/Synopsys/Hspice/hspice/parts/ad
       option search = /Tools/Synopsys/Hspice/hspice/parts/behave
       option search = /Tools/Synopsys/Hspice/hspice/parts/bjt
       option search = /Tools/Synopsys/Hspice/hspice/parts/burr_brn
       option search = /Tools/Synopsys/Hspice/hspice/parts/comlinear
       option search = /Tools/Synopsys/Hspice/hspice/parts/dio
       option search = /Tools/Synopsys/Hspice/hspice/parts/fet
       option search = /Tools/Synopsys/Hspice/hspice/parts/lin_tech
       option search = /Tools/Synopsys/Hspice/hspice/parts/pci
       option search = /Tools/Synopsys/Hspice/hspice/parts/signet
       option search = /Tools/Synopsys/Hspice/hspice/parts/ti
       option search = /Tools/Synopsys/Hspice/hspice/parts/tline
       option search = /Tools/Synopsys/Hspice/hspice/parts/xilinx
       option runlvl
       option delmax =    1.000E-09
       option probe
       option post =     2.00
       option artist =     2.00
       option ingold =     2.00
       option parhier = local
       option psf =     2.00
       option ivth =    1.000E-07
       option bypass =     0.00
 init: end read circuit files,  cpu clock=  1.68E+01 peak memory=       174 mb
 init: begin check errors,  cpu clock=  1.68E+01
 init: end check errors,  cpu clock=  1.68E+01 peak memory=       174 mb
 init: begin setup matrix, pivot=     0 cpu clock=  1.68E+01
       establish matrix -- done,  cpu clock=  1.68E+01 peak memory=       174 mb
       re-order matrix -- done,  cpu clock=  1.68E+01 peak memory=       174 mb
 init: end setup matrix,  cpu clock=  1.68E+01 peak memory=       174 mb
 dcop: begin dcop,  cpu clock=  1.68E+01
 dcop: end dcop,  cpu clock=  1.68E+01 peak memory=       174 mb  tot_iter=       4
 sweep: tran tran0    begin, stop_t=  5.00E-09 #sweeps=   2 cpu clock=  1.68E+01
 tran: time= 5.7500E-10 tot_iter=       6 conv_iter=       3 cpu clock= 1.69E+01
 tran: time= 1.0750E-09 tot_iter=      10 conv_iter=       5 cpu clock= 1.69E+01
 tran: time= 1.5750E-09 tot_iter=      14 conv_iter=       7 cpu clock= 1.69E+01
 tran: time= 2.0750E-09 tot_iter=      18 conv_iter=       9 cpu clock= 1.69E+01
 tran: time= 2.5750E-09 tot_iter=      22 conv_iter=      11 cpu clock= 1.69E+01
 tran: time= 3.0750E-09 tot_iter=      26 conv_iter=      13 cpu clock= 1.69E+01
 tran: time= 3.5750E-09 tot_iter=      30 conv_iter=      15 cpu clock= 1.69E+01
 tran: time= 4.0750E-09 tot_iter=      34 conv_iter=      17 cpu clock= 1.69E+01
 tran: time= 4.5750E-09 tot_iter=      38 conv_iter=      19 cpu clock= 1.69E+01
 tran: time= 5.0000E-09 tot_iter=      42 conv_iter=      21 cpu clock= 1.69E+01
 sweep: tran tran0    end,  cpu clock=  1.69E+01 peak memory=       174 mb
>info:         ***** hspice job concluded
 init: begin read circuit files,  cpu clock=  1.69E+01
       option search = /Tools/Synopsys/Hspice/hspice/parts/ad
       option search = /Tools/Synopsys/Hspice/hspice/parts/ad
       option search = /Tools/Synopsys/Hspice/hspice/parts/behave
       option search = /Tools/Synopsys/Hspice/hspice/parts/bjt
       option search = /Tools/Synopsys/Hspice/hspice/parts/burr_brn
       option search = /Tools/Synopsys/Hspice/hspice/parts/comlinear
       option search = /Tools/Synopsys/Hspice/hspice/parts/dio
       option search = /Tools/Synopsys/Hspice/hspice/parts/fet
       option search = /Tools/Synopsys/Hspice/hspice/parts/lin_tech
       option search = /Tools/Synopsys/Hspice/hspice/parts/pci
       option search = /Tools/Synopsys/Hspice/hspice/parts/signet
       option search = /Tools/Synopsys/Hspice/hspice/parts/ti
       option search = /Tools/Synopsys/Hspice/hspice/parts/tline
       option search = /Tools/Synopsys/Hspice/hspice/parts/xilinx
       option runlvl
       option delmax =    1.000E-09
       option probe
       option post =     2.00
       option artist =     2.00
       option ingold =     2.00
       option parhier = local
       option psf =     2.00
       option ivth =    1.000E-07
       option bypass =     0.00
 init: end read circuit files,  cpu clock=  1.69E+01 peak memory=       174 mb
 init: begin check errors,  cpu clock=  1.69E+01
 init: end check errors,  cpu clock=  1.69E+01 peak memory=       174 mb
 init: begin setup matrix, pivot=     0 cpu clock=  1.69E+01
       establish matrix -- done,  cpu clock=  1.69E+01 peak memory=       174 mb
[...]
       option search = /Tools/Synopsys/Hspice/hspice/parts/bjt
       option search = /Tools/Synopsys/Hspice/hspice/parts/burr_brn
       option search = /Tools/Synopsys/Hspice/hspice/parts/comlinear
       option search = /Tools/Synopsys/Hspice/hspice/parts/dio
       option search = /Tools/Synopsys/Hspice/hspice/parts/fet
       option search = /Tools/Synopsys/Hspice/hspice/parts/lin_tech
       option search = /Tools/Synopsys/Hspice/hspice/parts/pci
       option search = /Tools/Synopsys/Hspice/hspice/parts/signet
       option search = /Tools/Synopsys/Hspice/hspice/parts/ti
       option search = /Tools/Synopsys/Hspice/hspice/parts/tline
       option search = /Tools/Synopsys/Hspice/hspice/parts/xilinx
       option runlvl
       option delmax =    1.000E-09
       option probe
       option post =     2.00
       option artist =     2.00
       option ingold =     2.00
       option parhier = local
       option psf =     2.00
       option ivth =    1.000E-07
       option bypass =     0.00
 init: end read circuit files,  cpu clock=  1.74E+01 peak memory=       174 mb
 init: begin check errors,  cpu clock=  1.74E+01
 init: end check errors,  cpu clock=  1.74E+01 peak memory=       174 mb
 init: begin setup matrix, pivot=     0 cpu clock=  1.74E+01
       establish matrix -- done,  cpu clock=  1.74E+01 peak memory=       174 mb
       re-order matrix -- done,  cpu clock=  1.74E+01 peak memory=       174 mb
 init: end setup matrix,  cpu clock=  1.74E+01 peak memory=       174 mb
 dcop: begin dcop,  cpu clock=  1.74E+01
 dcop: end dcop,  cpu clock=  1.74E+01 peak memory=       174 mb  tot_iter=       4
 sweep: tran tran0    begin, stop_t=  5.00E-09 #sweeps=   2 cpu clock=  1.74E+01
 tran: time= 5.7500E-10 tot_iter=       6 conv_iter=       3 cpu clock= 1.74E+01
 tran: time= 1.0750E-09 tot_iter=      10 conv_iter=       5 cpu clock= 1.74E+01
 tran: time= 1.5750E-09 tot_iter=      14 conv_iter=       7 cpu clock= 1.74E+01
 tran: time= 2.0750E-09 tot_iter=      18 conv_iter=       9 cpu clock= 1.74E+01
 tran: time= 2.5750E-09 tot_iter=      22 conv_iter=      11 cpu clock= 1.74E+01
 tran: time= 3.0750E-09 tot_iter=      26 conv_iter=      13 cpu clock= 1.74E+01
 tran: time= 3.5750E-09 tot_iter=      30 conv_iter=      15 cpu clock= 1.74E+01
 tran: time= 4.0750E-09 tot_iter=      34 conv_iter=      17 cpu clock= 1.74E+01
 tran: time= 4.5750E-09 tot_iter=      38 conv_iter=      19 cpu clock= 1.74E+01
 tran: time= 5.0000E-09 tot_iter=      42 conv_iter=      21 cpu clock= 1.74E+01
 sweep: tran tran0    end,  cpu clock=  1.74E+01 peak memory=       174 mb
>info:         ***** hspice job concluded
 init: begin read circuit files,  cpu clock=  1.74E+01
       option search = /Tools/Synopsys/Hspice/hspice/parts/ad
       option search = /Tools/Synopsys/Hspice/hspice/parts/ad
       option search = /Tools/Synopsys/Hspice/hspice/parts/behave
       option search = /Tools/Synopsys/Hspice/hspice/parts/bjt
       option search = /Tools/Synopsys/Hspice/hspice/parts/burr_brn
       option search = /Tools/Synopsys/Hspice/hspice/parts/comlinear
       option search = /Tools/Synopsys/Hspice/hspice/parts/dio
       option search = /Tools/Synopsys/Hspice/hspice/parts/fet
       option search = /Tools/Synopsys/Hspice/hspice/parts/lin_tech
       option search = /Tools/Synopsys/Hspice/hspice/parts/pci
       option search = /Tools/Synopsys/Hspice/hspice/parts/signet
       option search = /Tools/Synopsys/Hspice/hspice/parts/ti
       option search = /Tools/Synopsys/Hspice/hspice/parts/tline
       option search = /Tools/Synopsys/Hspice/hspice/parts/xilinx
       option runlvl
       option delmax =    1.000E-09
       option probe
       option post =     2.00
       option artist =     2.00
       option ingold =     2.00
       option parhier = local
       option psf =     2.00
       option ivth =    1.000E-07
       option bypass =     0.00
 init: end read circuit files,  cpu clock=  1.74E+01 peak memory=       174 mb
 init: begin check errors,  cpu clock=  1.74E+01
 init: end check errors,  cpu clock=  1.74E+01 peak memory=       174 mb
 init: begin setup matrix, pivot=     0 cpu clock=  1.74E+01
       establish matrix -- done,  cpu clock=  1.74E+01 peak memory=       174 mb
       re-order matrix -- done,  cpu clock=  1.74E+01 peak memory=       174 mb
 init: end setup matrix,  cpu clock=  1.74E+01 peak memory=       174 mb
 dcop: begin dcop,  cpu clock=  1.74E+01
 dcop: end dcop,  cpu clock=  1.74E+01 peak memory=       174 mb  tot_iter=       4
 sweep: tran tran0    begin, stop_t=  5.00E-09 #sweeps=   2 cpu clock=  1.74E+01
 tran: time= 5.7500E-10 tot_iter=       6 conv_iter=       3 cpu clock= 1.74E+01
 tran: time= 1.0750E-09 tot_iter=      10 conv_iter=       5 cpu clock= 1.74E+01
 tran: time= 1.5750E-09 tot_iter=      14 conv_iter=       7 cpu clock= 1.74E+01
 tran: time= 2.0750E-09 tot_iter=      18 conv_iter=       9 cpu clock= 1.74E+01
 tran: time= 2.5750E-09 tot_iter=      22 conv_iter=      11 cpu clock= 1.74E+01
 tran: time= 3.0750E-09 tot_iter=      26 conv_iter=      13 cpu clock= 1.74E+01
 tran: time= 3.5750E-09 tot_iter=      30 conv_iter=      15 cpu clock= 1.74E+01
 tran: time= 4.0750E-09 tot_iter=      34 conv_iter=      17 cpu clock= 1.74E+01
 tran: time= 4.5750E-09 tot_iter=      38 conv_iter=      19 cpu clock= 1.74E+01
 tran: time= 5.0000E-09 tot_iter=      42 conv_iter=      21 cpu clock= 1.74E+01
 sweep: tran tran0    end,  cpu clock=  1.74E+01 peak memory=       174 mb
>info:         ***** hspice job concluded
 init: begin read circuit files,  cpu clock=  1.74E+01
       option search = /Tools/Synopsys/Hspice/hspice/parts/ad
       option search = /Tools/Synopsys/Hspice/hspice/parts/ad
       option search = /Tools/Synopsys/Hspice/hspice/parts/behave
       option search = /Tools/Synopsys/Hspice/hspice/parts/bjt
       option search = /Tools/Synopsys/Hspice/hspice/parts/burr_brn
       option search = /Tools/Synopsys/Hspice/hspice/parts/comlinear
       option search = /Tools/Synopsys/Hspice/hspice/parts/dio
       option search = /Tools/Synopsys/Hspice/hspice/parts/fet
       option search = /Tools/Synopsys/Hspice/hspice/parts/lin_tech
       option search = /Tools/Synopsys/Hspice/hspice/parts/pci
       option search = /Tools/Synopsys/Hspice/hspice/parts/signet
       option search = /Tools/Synopsys/Hspice/hspice/parts/ti
       option search = /Tools/Synopsys/Hspice/hspice/parts/tline
       option search = /Tools/Synopsys/Hspice/hspice/parts/xilinx
       option runlvl
       option delmax =    1.000E-09
       option probe
       option post =     2.00
       option artist =     2.00
       option ingold =     2.00
       option parhier = local
       option psf =     2.00
       option ivth =    1.000E-07
       option bypass =     0.00
 init: end read circuit files,  cpu clock=  1.74E+01 peak memory=       174 mb
 init: begin check errors,  cpu clock=  1.74E+01
 init: end check errors,  cpu clock=  1.74E+01 peak memory=       174 mb
 init: begin setup matrix, pivot=     0 cpu clock=  1.74E+01
       establish matrix -- done,  cpu clock=  1.74E+01 peak memory=       174 mb
       re-order matrix -- done,  cpu clock=  1.74E+01 peak memory=       174 mb
 init: end setup matrix,  cpu clock=  1.74E+01 peak memory=       174 mb
 dcop: begin dcop,  cpu clock=  1.74E+01
 dcop: end dcop,  cpu clock=  1.74E+01 peak memory=       174 mb  tot_iter=       4
 sweep: tran tran0    begin, stop_t=  5.00E-09 #sweeps=   2 cpu clock=  1.74E+01
 tran: time= 5.7500E-10 tot_iter=       6 conv_iter=       3 cpu clock= 1.74E+01
 tran: time= 1.0750E-09 tot_iter=      10 conv_iter=       5 cpu clock= 1.74E+01
 tran: time= 1.5750E-09 tot_iter=      14 conv_iter=       7 cpu clock= 1.74E+01
 tran: time= 2.0750E-09 tot_iter=      18 conv_iter=       9 cpu clock= 1.74E+01
 tran: time= 2.5750E-09 tot_iter=      22 conv_iter=      11 cpu clock= 1.74E+01
 tran: time= 3.0750E-09 tot_iter=      26 conv_iter=      13 cpu clock= 1.74E+01
 tran: time= 3.5750E-09 tot_iter=      30 conv_iter=      15 cpu clock= 1.74E+01
 tran: time= 4.0750E-09 tot_iter=      34 conv_iter=      17 cpu clock= 1.74E+01
 tran: time= 4.5750E-09 tot_iter=      38 conv_iter=      19 cpu clock= 1.74E+01
 tran: time= 5.0000E-09 tot_iter=      42 conv_iter=      21 cpu clock= 1.74E+01
 sweep: tran tran0    end,  cpu clock=  1.74E+01 peak memory=       174 mb
>info:         ***** hspice job concluded
 init: begin read circuit files,  cpu clock=  1.74E+01
       option search = /Tools/Synopsys/Hspice/hspice/parts/ad
       option search = /Tools/Synopsys/Hspice/hspice/parts/ad
       option search = /Tools/Synopsys/Hspice/hspice/parts/behave
       option search = /Tools/Synopsys/Hspice/hspice/parts/bjt
       option search = /Tools/Synopsys/Hspice/hspice/parts/burr_brn
       option search = /Tools/Synopsys/Hspice/hspice/parts/comlinear
       option search = /Tools/Synopsys/Hspice/hspice/parts/dio
       option search = /Tools/Synopsys/Hspice/hspice/parts/fet
       option search = /Tools/Synopsys/Hspice/hspice/parts/lin_tech
       option search = /Tools/Synopsys/Hspice/hspice/parts/pci
       option search = /Tools/Synopsys/Hspice/hspice/parts/signet
       option search = /Tools/Synopsys/Hspice/hspice/parts/ti
       option search = /Tools/Synopsys/Hspice/hspice/parts/tline
       option search = /Tools/Synopsys/Hspice/hspice/parts/xilinx
       option runlvl
       option delmax =    1.000E-09
       option probe
       option post =     2.00
       option artist =     2.00
       option ingold =     2.00
       option parhier = local
       option psf =     2.00
       option ivth =    1.000E-07
       option bypass =     0.00
 init: end read circuit files,  cpu clock=  1.74E+01 peak memory=       174 mb
 init: begin check errors,  cpu clock=  1.74E+01
 init: end check errors,  cpu clock=  1.74E+01 peak memory=       174 mb
 init: begin setup matrix, pivot=     0 cpu clock=  1.74E+01
       establish matrix -- done,  cpu clock=  1.74E+01 peak memory=       174 mb
       re-order matrix -- done,  cpu clock=  1.74E+01 peak memory=       174 mb
 init: end setup matrix,  cpu clock=  1.74E+01 peak memory=       174 mb
 dcop: begin dcop,  cpu clock=  1.74E+01
 dcop: end dcop,  cpu clock=  1.74E+01 peak memory=       174 mb  tot_iter=       4
 sweep: tran tran0    begin, stop_t=  5.00E-09 #sweeps=   2 cpu clock=  1.74E+01
 tran: time= 5.7500E-10 tot_iter=       6 conv_iter=       3 cpu clock= 1.74E+01
 tran: time= 1.0750E-09 tot_iter=      10 conv_iter=       5 cpu clock= 1.74E+01
 tran: time= 1.5750E-09 tot_iter=      14 conv_iter=       7 cpu clock= 1.74E+01
 tran: time= 2.0750E-09 tot_iter=      18 conv_iter=       9 cpu clock= 1.74E+01
 tran: time= 2.5750E-09 tot_iter=      22 conv_iter=      11 cpu clock= 1.74E+01
 tran: time= 3.0750E-09 tot_iter=      26 conv_iter=      13 cpu clock= 1.74E+01
 tran: time= 3.5750E-09 tot_iter=      30 conv_iter=      15 cpu clock= 1.74E+01
 tran: time= 4.0750E-09 tot_iter=      34 conv_iter=      17 cpu clock= 1.74E+01
 tran: time= 4.5750E-09 tot_iter=      38 conv_iter=      19 cpu clock= 1.74E+01
 tran: time= 5.0000E-09 tot_iter=      42 conv_iter=      21 cpu clock= 1.74E+01
 sweep: tran tran0    end,  cpu clock=  1.74E+01 peak memory=       174 mb
>info:         ***** hspice job concluded
 init: begin read circuit files,  cpu clock=  1.74E+01
       option search = /Tools/Synopsys/Hspice/hspice/parts/ad
       option search = /Tools/Synopsys/Hspice/hspice/parts/ad
       option search = /Tools/Synopsys/Hspice/hspice/parts/behave
       option search = /Tools/Synopsys/Hspice/hspice/parts/bjt
       option search = /Tools/Synopsys/Hspice/hspice/parts/burr_brn
       option search = /Tools/Synopsys/Hspice/hspice/parts/comlinear
       option search = /Tools/Synopsys/Hspice/hspice/parts/dio
       option search = /Tools/Synopsys/Hspice/hspice/parts/fet
       option search = /Tools/Synopsys/Hspice/hspice/parts/lin_tech
       option search = /Tools/Synopsys/Hspice/hspice/parts/pci
       option search = /Tools/Synopsys/Hspice/hspice/parts/signet
       option search = /Tools/Synopsys/Hspice/hspice/parts/ti
       option search = /Tools/Synopsys/Hspice/hspice/parts/tline
       option search = /Tools/Synopsys/Hspice/hspice/parts/xilinx
       option runlvl
       option delmax =    1.000E-09
       option probe
       option post =     2.00
       option artist =     2.00
       option ingold =     2.00
       option parhier = local
       option psf =     2.00
       option ivth =    1.000E-07
       option bypass =     0.00
 init: end read circuit files,  cpu clock=  1.74E+01 peak memory=       174 mb
 init: begin check errors,  cpu clock=  1.74E+01
 init: end check errors,  cpu clock=  1.74E+01 peak memory=       174 mb
 init: begin setup matrix, pivot=     0 cpu clock=  1.74E+01
       establish matrix -- done,  cpu clock=  1.74E+01 peak memory=       174 mb
       re-order matrix -- done,  cpu clock=  1.74E+01 peak memory=       174 mb
 init: end setup matrix,  cpu clock=  1.74E+01 peak memory=       174 mb
 dcop: begin dcop,  cpu clock=  1.74E+01
 dcop: end dcop,  cpu clock=  1.74E+01 peak memory=       174 mb  tot_iter=       4
 sweep: tran tran0    begin, stop_t=  5.00E-09 #sweeps=   2 cpu clock=  1.74E+01
 tran: time= 5.7500E-10 tot_iter=       6 conv_iter=       3 cpu clock= 1.74E+01
 tran: time= 1.0750E-09 tot_iter=      10 conv_iter=       5 cpu clock= 1.74E+01
 tran: time= 1.5750E-09 tot_iter=      14 conv_iter=       7 cpu clock= 1.74E+01
 tran: time= 2.0750E-09 tot_iter=      18 conv_iter=       9 cpu clock= 1.74E+01
 tran: time= 2.5750E-09 tot_iter=      22 conv_iter=      11 cpu clock= 1.74E+01
 tran: time= 3.0750E-09 tot_iter=      26 conv_iter=      13 cpu clock= 1.74E+01
 tran: time= 3.5750E-09 tot_iter=      30 conv_iter=      15 cpu clock= 1.74E+01
 tran: time= 4.0750E-09 tot_iter=      34 conv_iter=      17 cpu clock= 1.74E+01
 tran: time= 4.5750E-09 tot_iter=      38 conv_iter=      19 cpu clock= 1.74E+01
 tran: time= 5.0000E-09 tot_iter=      42 conv_iter=      21 cpu clock= 1.74E+01
 sweep: tran tran0    end,  cpu clock=  1.74E+01 peak memory=       174 mb
>info:         ***** hspice job concluded
 init: begin read circuit files,  cpu clock=  1.74E+01
       option search = /Tools/Synopsys/Hspice/hspice/parts/ad
       option search = /Tools/Synopsys/Hspice/hspice/parts/ad
       option search = /Tools/Synopsys/Hspice/hspice/parts/behave
       option search = /Tools/Synopsys/Hspice/hspice/parts/bjt
       option search = /Tools/Synopsys/Hspice/hspice/parts/burr_brn
       option search = /Tools/Synopsys/Hspice/hspice/parts/comlinear
       option search = /Tools/Synopsys/Hspice/hspice/parts/dio
       option search = /Tools/Synopsys/Hspice/hspice/parts/fet
       option search = /Tools/Synopsys/Hspice/hspice/parts/lin_tech
       option search = /Tools/Synopsys/Hspice/hspice/parts/pci
       option search = /Tools/Synopsys/Hspice/hspice/parts/signet
       option search = /Tools/Synopsys/Hspice/hspice/parts/ti
       option search = /Tools/Synopsys/Hspice/hspice/parts/tline
       option search = /Tools/Synopsys/Hspice/hspice/parts/xilinx
       option runlvl
       option delmax =    1.000E-09
       option probe
       option post =     2.00
       option artist =     2.00
       option ingold =     2.00
       option parhier = local
       option psf =     2.00
       option ivth =    1.000E-07
       option bypass =     0.00
 init: end read circuit files,  cpu clock=  1.74E+01 peak memory=       174 mb
 init: begin check errors,  cpu clock=  1.74E+01
 init: end check errors,  cpu clock=  1.74E+01 peak memory=       174 mb
 init: begin setup matrix, pivot=     0 cpu clock=  1.74E+01
       establish matrix -- done,  cpu clock=  1.74E+01 peak memory=       174 mb
       re-order matrix -- done,  cpu clock=  1.74E+01 peak memory=       174 mb
 init: end setup matrix,  cpu clock=  1.74E+01 peak memory=       174 mb
 dcop: begin dcop,  cpu clock=  1.74E+01
 dcop: end dcop,  cpu clock=  1.74E+01 peak memory=       174 mb  tot_iter=       4
 sweep: tran tran0    begin, stop_t=  5.00E-09 #sweeps=   2 cpu clock=  1.74E+01
 tran: time= 5.7500E-10 tot_iter=       6 conv_iter=       3 cpu clock= 1.74E+01
 tran: time= 1.0750E-09 tot_iter=      10 conv_iter=       5 cpu clock= 1.74E+01
 tran: time= 1.5750E-09 tot_iter=      14 conv_iter=       7 cpu clock= 1.74E+01
 tran: time= 2.0750E-09 tot_iter=      18 conv_iter=       9 cpu clock= 1.74E+01
 tran: time= 2.5750E-09 tot_iter=      22 conv_iter=      11 cpu clock= 1.74E+01
 tran: time= 3.0750E-09 tot_iter=      26 conv_iter=      13 cpu clock= 1.74E+01
 tran: time= 3.5750E-09 tot_iter=      30 conv_iter=      15 cpu clock= 1.74E+01
 tran: time= 4.0750E-09 tot_iter=      34 conv_iter=      17 cpu clock= 1.74E+01
 tran: time= 4.5750E-09 tot_iter=      38 conv_iter=      19 cpu clock= 1.74E+01
 tran: time= 5.0000E-09 tot_iter=      42 conv_iter=      21 cpu clock= 1.74E+01
 sweep: tran tran0    end,  cpu clock=  1.74E+01 peak memory=       174 mb
>info:         ***** hspice job concluded
 init: begin read circuit files,  cpu clock=  1.74E+01
       option search = /Tools/Synopsys/Hspice/hspice/parts/ad
       option search = /Tools/Synopsys/Hspice/hspice/parts/ad
       option search = /Tools/Synopsys/Hspice/hspice/parts/behave
       option search = /Tools/Synopsys/Hspice/hspice/parts/bjt
       option search = /Tools/Synopsys/Hspice/hspice/parts/burr_brn
       option search = /Tools/Synopsys/Hspice/hspice/parts/comlinear
       option search = /Tools/Synopsys/Hspice/hspice/parts/dio
       option search = /Tools/Synopsys/Hspice/hspice/parts/fet
       option search = /Tools/Synopsys/Hspice/hspice/parts/lin_tech
       option search = /Tools/Synopsys/Hspice/hspice/parts/pci
       option search = /Tools/Synopsys/Hspice/hspice/parts/signet
       option search = /Tools/Synopsys/Hspice/hspice/parts/ti
       option search = /Tools/Synopsys/Hspice/hspice/parts/tline
       option search = /Tools/Synopsys/Hspice/hspice/parts/xilinx
       option runlvl
       option delmax =    1.000E-09
       option probe
       option post =     2.00
       option artist =     2.00
       option ingold =     2.00
       option parhier = local
       option psf =     2.00
       option ivth =    1.000E-07
       option bypass =     0.00
 init: end read circuit files,  cpu clock=  1.74E+01 peak memory=       173 mb
 init: begin check errors,  cpu clock=  1.74E+01
 init: end check errors,  cpu clock=  1.74E+01 peak memory=       173 mb
 init: begin setup matrix, pivot=     0 cpu clock=  1.74E+01
       establish matrix -- done,  cpu clock=  1.74E+01 peak memory=       173 mb
       re-order matrix -- done,  cpu clock=  1.74E+01 peak memory=       173 mb
 init: end setup matrix,  cpu clock=  1.74E+01 peak memory=       173 mb
 dcop: begin dcop,  cpu clock=  1.74E+01
 dcop: end dcop,  cpu clock=  1.74E+01 peak memory=       173 mb  tot_iter=       4
 sweep: tran tran0    begin, stop_t=  5.00E-09 #sweeps=   2 cpu clock=  1.74E+01
 tran: time= 5.7500E-10 tot_iter=       6 conv_iter=       3 cpu clock= 1.74E+01
 tran: time= 1.0750E-09 tot_iter=      10 conv_iter=       5 cpu clock= 1.74E+01
 tran: time= 1.5750E-09 tot_iter=      14 conv_iter=       7 cpu clock= 1.74E+01
 tran: time= 2.0750E-09 tot_iter=      18 conv_iter=       9 cpu clock= 1.74E+01
 tran: time= 2.5750E-09 tot_iter=      22 conv_iter=      11 cpu clock= 1.74E+01
 tran: time= 3.0750E-09 tot_iter=      26 conv_iter=      13 cpu clock= 1.74E+01
 tran: time= 3.5750E-09 tot_iter=      30 conv_iter=      15 cpu clock= 1.74E+01
 tran: time= 4.0750E-09 tot_iter=      34 conv_iter=      17 cpu clock= 1.74E+01
 tran: time= 4.5750E-09 tot_iter=      38 conv_iter=      19 cpu clock= 1.74E+01
 tran: time= 5.0000E-09 tot_iter=      42 conv_iter=      21 cpu clock= 1.74E+01
 sweep: tran tran0    end,  cpu clock=  1.74E+01 peak memory=       173 mb
>info:         ***** hspice job concluded
 lic: Release hspice token(s)
