$DATA1 SOURCE='HSPICE' VERSION='I-2013.12-SP1 64-BIT'
.TITLE 'stts'
 ivth_nmos        ivth_pmos_temp   ivth_pmos        temper            
 alter#            
  1.925e-01       -2.508e-01        2.508e-01        1.250e+02        
 13                
