$DATA1 SOURCE='HSPICE' VERSION='I-2013.12-SP1 64-BIT'
.TITLE 'sfsf'
 ivth_nmos        ivth_pmos_temp   ivth_pmos        temper            
 alter#            
  2.227e-01       -1.902e-01        1.902e-01        1.250e+02        
 21                
