$DATA1 SOURCE='HSPICE' VERSION='I-2013.12-SP1 64-BIT'
.TITLE 'tstt'
 ivth_nmos        ivth_pmos_temp   ivth_pmos        temper            
 alter#            
  2.064e-01       -2.285e-01        2.285e-01        2.500e+01        
 32                
