Using: /Tools/Synopsys/Hspice/hspice/linux/hspice  -i stimulus.sp -o output/ -d
