$DATA1 SOURCE='HSPICE' VERSION='I-2013.12-SP1 64-BIT'
.TITLE 'ttss'
 tpdf             tpdr             tpd              tcdr              
 tcd              tr               tf               avgpower          
 peakpower        temper           alter#            
  1.200e-11        9.532e-12        1.077e-11        5.087e-12        
  8.544e-12        9.833e-12        1.019e-11        1.160e-07        
  1.269e-04        2.500e+01       1                 
