$DATA1 SOURCE='HSPICE' VERSION='I-2013.12-SP1 64-BIT'
.TITLE 'tttt'
 tpdf             tpdr             tpd              tcdr              
 tcd              tr               tf               avgpower          
 peakpower        temper           alter#            
  1.144e-11        9.023e-12        1.023e-11        4.596e-12        
  8.017e-12        9.553e-12        9.845e-12        1.359e-07        
  1.210e-04        2.500e+01       2                 
