$DATA1 SOURCE='HSPICE' VERSION='I-2013.12-SP1 64-BIT'
.TITLE 'tttt'
 tpdf             tpdr             tpd              tcdr              
 tcd              tr               tf               avgpower          
 peakpower        temper           alter#            
  1.909e-11        2.109e-11        2.009e-11        1.257e-11        
  1.583e-11        7.195e-12        7.871e-12        2.406e-07        
  1.566e-04        2.500e+01       2                 
