 ****** HSPICE -- I-2013.12-SP1 64-BIT (Feb 25 2014) RHEL64 ******              
  Copyright (C) 2014 Synopsys, Inc. All Rights Reserved.                        
  Unpublished-rights reserved under US copyright laws.
  This program is protected by law and is subject to the
  terms and conditions of the license agreement from Synopsys.
  Use of this program is your acceptance to be bound by the
  license agreement. HSPICE is the trademark of Synopsys, Inc.
  Input File: mos_ion_monte_correlation.sp                                      
  Command line options: -i mos_ion_monte_correlation.sp -o output/ -d
 lic:  
 lic: FLEXlm: v10.9.8 
 lic: USER:   2015104069           HOSTNAME: vlsi-dist.khu.ac.kr 
 lic: HOSTID: 382c4ac7d475         PID:      22309 
 lic: Using FLEXlm license file: 
 lic: 27020@163.180.118.27 
 lic: Checkout 1 hspice 
 lic: License/Maintenance for hspice will expire on 30-jun-2020/2018.09 
 lic: 1(in_use)/7(total) FLOATING license(s) on SERVER 27020@163.180.118.27 
 lic:   
 Init: read install configuration file: /Tools/Synopsys/Hspice/hspice/meta.cfg
1****** HSPICE -- I-2013.12-SP1 64-BIT (Feb 25 2014) RHEL64 ******              
 ******  
 tttt

  ******  mos   model parameters tnom=  25.000 temp=  25.000 *****
 Model Name: nmos_vtl  
 BSIM4 Model (Level 54)
    MOBMOD = 0
    BINUNIT = 1
    PARAMCHK = 1
    CAPMOD = 2
    DIOMOD = 1
    RDSMOD = 0
    TRNQSMOD = 0
    ACNQSMOD = 0
    RBODYMOD = 1
    RGATEMOD = 1
    PERMOD = 1
    GEOMOD = 1
    RGEOMOD = 0
    FNOIMOD = 1
    TNOIMOD = 0
    IGCMOD = 1
    IGBMOD = 1
    STIMOD = 0
    VERSION =      4 
    TOXREF = 1.14e-09 
    TOXE = 1.14e-09 
    TOXP =  1e-09 
    TOXM = 1.14e-09 
    DTOX = 1.4e-10 
    EPSROX =    3.9 
    CDSC =      0 
    CDSCB =      0 
    CDSCD =      0 
    CIT =      0 
    NFACTOR =    2.1 
    XJ = 1.98e-08 
    VSAT = 1.48e+05 
    A0 =      1 
    AGS =      0 
    A1 =      0 
    A2 =      1 
    AT = 3.3e+04 
    KETA =   0.04 
    NSUB =  6e+16 
    NDEP = 3.4e+18 
    NSD =  2e+20 
    NGATE =  3e+20 
    GAMMA1 =      0 
    GAMMA2 =      0 
    VBX =      0 
    VBM =     -3 
    XT = 1.55e-07 
    K1 =    0.4 
    KT1 =  -0.11 
    KT1L =      0 
    KT2 =  0.022 
    K2 =      0 
    K3 =      0 
    K3B =      0 
    LPE0 =      0 
    LPEB =      0 
    DVTP0 =  1e-10 
    DVTP1 =    0.1 
    W0 = 2.5e-06 
    DVT0 =      1 
    DVT1 =      2 
    DVT2 =      0 
    DVT0W =      0 
    DVT1W =      0 
    DVT2W =      0 
    DROUT =    0.5 
    DSUB =    0.1 
    VTH0 =  0.322 
    EU =   1.67 
    UA =  6e-10 
    UA1 = 4.31e-09 
    UB = 1.2e-18 
    UB1 = 7.61e-18 
    UC =      0 
    UC1 = -5.6e-11 
    U0 =  0.045 
    UTE =   -1.5 
    VOFF =  -0.13 
    VOFFL =      0 
    MINV =   0.05 
    FPROUT =    0.2 
    PDITS =   0.08 
    PDITSD =   0.23 
    PDITSL = 2.3e+06 
    DELTA =   0.01 
    RDSW =    155 
    RDSWMIN =      0 
    RDWMIN =      0 
    RSWMIN =      0 
    RDW =     80 
    RSW =     80 
    PRWG =      0 
    PRWB =      0 
    PRT =      0 
    ETA0 =  0.006 
    ETAB =      0 
    PCLM =   0.02 
    PDIBLC1 =  0.001 
    PDIBLC2 =  0.001 
    PDIBLCB = -0.005 
    PSCBE1 = 8.14e+08 
    PSCBE2 =  1e-07 
    PVAG =  1e-20 
    WR =      1 
    DWG =      0 
    DWB =      0 
    XW =      0 
    XWREF =      0 
    XL = -2e-08 
    XLREF = -2e-08 
    B0 =      0 
    B1 =      0 
    ALPHA0 =  0.074 
    ALPHA1 =  0.005 
    AGIDL = 0.0002 
    BGIDL = 2.1e+09 
    CGIDL = 0.0002 
    PHIN =      0 
    EGIDL =    0.8 
    AIGC =   0.02 
    BIGC = 0.0027 
    CIGC =  0.002 
    AIGSD =   0.02 
    BIGSD = 0.0027 
    CIGSD =  0.002 
    AIGBACC =  0.012 
    BIGBACC = 0.0028 
    CIGBACC =  0.002 
    AIGBINV =  0.014 
    BIGBINV =  0.004 
    CIGBINV =  0.004 
    NIGC =      1 
    NIGBINV =      3 
    NIGBACC =      1 
    NTOX =      1 
    EIGBINV =    1.1 
    PIGCD =      1 
    POXEDGE =      1 
    XRCRG1 =     12 
    TNOIA =    1.5 
    TNOIB =    3.5 
    NTNOI =      1 
    XRCRG2 =      5 
    BETA0 =     30 
    IJTHDFWD =   0.01 
    IJTHSFWD =   0.01 
    IJTHDREV =  0.001 
    IJTHSREV =  0.001 
    XJBVD =      1 
    XJBVS =      1 
    BVD =     10 
    BVS =     10 
    VFB =  -0.55 
    GBMIN =  1e-10 
    RBDB =     15 
    RBPB =      5 
    RBSB =     15 
    RBPS =     15 
    RBPD =     15 
    CGSL = 2.653e-10 
    CGDL = 2.653e-10 
    CKAPPAS =   0.03 
    CKAPPAD =   0.03 
    CF = 1.289e-10 
    CLC =  1e-07 
    CLE =    0.6 
    DWC =  5e-09 
    DLC = 3.75e-09 
    DLCIG = 3.75e-09 
    DWJ =      0 
    VFBCV =     -1 
    ACDE =      1 
    MOIN =     15 
    NOFF =    0.9 
    VOFFCV =   0.02 
    DMCG =      0 
    DMCI =      0 
    DMDG =      0 
    DMCGT =      0 
    XGW =      0 
    XGL =      0 
    RSHG =    0.4 
    NGCON =      1 
    TCJ =  0.001 
    TPB =  0.005 
    TCJSW =  0.001 
    TPBSW =  0.005 
    TCJSWG =  0.001 
    TPBSWG =  0.005 
    SK0 =      0 
    SK1 =      0 
    SK2 =      0 
    SL =  2e-06 
    SW =  2e-06 
    K =      0 
    TNOM =  300.1 
    CGSO = 1.1e-10 
    CGDO = 1.1e-10 
    CGBO = 2.56e-11 
    XPART =      0 
    RSH =      5 
    JSS = 0.0001 
    JSWS =  1e-11 
    JSWGS =  1e-10 
    PBS =      1 
    MJS =    0.5 
    PBSWS =      1 
    MJSWS =   0.33 
    CJS = 0.0005 
    CJSWS =  5e-10 
    NJS =      1 
    PBSWGS =      1 
    MJSWGS =   0.33 
    CJSWGS =  3e-10 
    XTIS =      3 
    JSD = 0.0001 
    JSWD =  1e-11 
    JSWGD =  1e-10 
    PBD =      1 
    MJD =    0.5 
    PBSWD =      1 
    MJSWD =   0.33 
    CJD = 0.0005 
    CJSWD =  5e-10 
    NJD =      1 
    PBSWGD =      1 
    MJSWGD =   0.33 
    CJSWGD =  5e-10 
    XTID =      3 
    LMLT =      1 
    WMLT =      1 
    LINT = 3.75e-09 
    LL =      0 
    LLC =      0 
    LLN =      1 
    LW =      0 
    LWC =      0 
    LWN =      1 
    LWL =      0 
    LWLC =      0 
    LMIN =      0 
    LMAX =      1 
    WINT =  5e-09 
    WL =      0 
    WLC =      0 
    WLN =      1 
    WW =      0 
    WWC =      0 
    WWN =      1 
    WWL =      0 
    WWLC =      0 
    WMIN =      0 
    WMAX =      1 
    NOIA = 6.25e+41 
    NOIB = 3.125e+26 
    NOIC = 8.75e+09 
    EM = 4.1e+07 
    EF =      1 
    AF =      1 
    KF =      0 
    TRS =      0 
    TRD =      0 
 Model Name: pmos_vtl  
 BSIM4 Model (Level 54)
    MOBMOD = 0
    BINUNIT = 1
    PARAMCHK = 1
    CAPMOD = 2
    DIOMOD = 1
    RDSMOD = 0
    TRNQSMOD = 0
    ACNQSMOD = 0
    RBODYMOD = 1
    RGATEMOD = 1
    PERMOD = 1
    GEOMOD = 1
    RGEOMOD = 0
    FNOIMOD = 1
    TNOIMOD = 0
    IGCMOD = 1
    IGBMOD = 1
    STIMOD = 0
    VERSION =      4 
    TOXREF = 1.3e-09 
    TOXE = 1.26e-09 
    TOXP =  1e-09 
    TOXM = 1.26e-09 
    DTOX = 2.6e-10 
    EPSROX =    3.9 
    CDSC =      0 
    CDSCB =      0 
    CDSCD =      0 
    CIT =      0 
    NFACTOR =   2.22 
    XJ = 1.98e-08 
    VSAT = 6.9e+04 
    A0 =      1 
    AGS =  1e-20 
    A1 =      0 
    A2 =      1 
    AT = 3.3e+04 
    KETA = -0.047 
    NSUB =  6e+16 
    NDEP = 2.44e+18 
    NSD =  2e+20 
    NGATE =  2e+20 
    GAMMA1 =      0 
    GAMMA2 =      0 
    VBX =      0 
    VBM =     -3 
    XT = 1.55e-07 
    K1 =    0.4 
    KT1 =  -0.11 
    KT1L =      0 
    KT2 =  0.022 
    K2 =  -0.01 
    K3 =      0 
    K3B =      0 
    LPE0 =      0 
    LPEB =      0 
    DVTP0 =  1e-11 
    DVTP1 =   0.05 
    W0 = 2.5e-06 
    DVT0 =      1 
    DVT1 =      2 
    DVT2 = -0.032 
    DVT0W =      0 
    DVT1W =      0 
    DVT2W =      0 
    DROUT =   0.56 
    DSUB =    0.1 
    VTH0 = -0.3021 
    EU =      1 
    UA =  2e-09 
    UA1 = 4.31e-09 
    UB =  5e-19 
    UB1 = 7.61e-18 
    UC =      0 
    UC1 = -5.6e-11 
    U0 =   0.02 
    UTE =   -1.5 
    VOFF = -0.126 
    VOFFL =      0 
    MINV =   0.05 
    FPROUT =    0.2 
    PDITS =   0.08 
    PDITSD =   0.23 
    PDITSL = 2.3e+06 
    DELTA =   0.01 
    RDSW =    155 
    RDSWMIN =      0 
    RDWMIN =      0 
    RSWMIN =      0 
    RDW =     75 
    RSW =     75 
    PRWG =      0 
    PRWB =      0 
    PRT =      0 
    ETA0 = 0.0055 
    ETAB =      0 
    PCLM =   0.12 
    PDIBLC1 =  0.001 
    PDIBLC2 =  0.001 
    PDIBLCB = 3.4e-08 
    PSCBE1 = 8.14e+08 
    PSCBE2 = 9.58e-07 
    PVAG =  1e-20 
    WR =      1 
    DWG =      0 
    DWB =      0 
    XW =      0 
    XWREF =      0 
    XL = -2e-08 
    XLREF = -2e-08 
    B0 =      0 
    B1 =      0 
    ALPHA0 =  0.074 
    ALPHA1 =  0.005 
    AGIDL = 0.0002 
    BGIDL = 2.1e+09 
    CGIDL = 0.0002 
    PHIN =      0 
    EGIDL =    0.8 
    AIGC = 0.01069 
    BIGC = 0.001261 
    CIGC = 0.0008 
    AIGSD = 0.01069 
    BIGSD = 0.001261 
    CIGSD = 0.0008 
    AIGBACC =  0.012 
    BIGBACC = 0.0028 
    CIGBACC =  0.002 
    AIGBINV =  0.014 
    BIGBINV =  0.004 
    CIGBINV =  0.004 
    NIGC =      1 
    NIGBINV =      3 
    NIGBACC =      1 
    NTOX =      1 
    EIGBINV =    1.1 
    PIGCD =      1 
    POXEDGE =      1 
    XRCRG1 =     12 
    TNOIA =    1.5 
    TNOIB =    3.5 
    NTNOI =      1 
    XRCRG2 =      5 
    BETA0 =     30 
    IJTHDFWD =   0.01 
    IJTHSFWD =   0.01 
    IJTHDREV =  0.001 
    IJTHSREV =  0.001 
    XJBVD =      1 
    XJBVS =      1 
    BVD =     10 
    BVS =     10 
    VFB =   0.55 
    GBMIN =  1e-10 
    RBDB =     15 
    RBPB =      5 
    RBSB =     15 
    RBPS =     15 
    RBPD =     15 
    CGSL = 2.653e-10 
    CGDL = 2.653e-10 
    CKAPPAS =   0.03 
    CKAPPAD =   0.03 
    CF = 1.267e-10 
    CLC =  1e-07 
    CLE =    0.6 
    DWC =  5e-09 
    DLC = 3.75e-09 
    DLCIG = 3.75e-09 
    DWJ =      0 
    VFBCV =     -1 
    ACDE =      1 
    MOIN =     15 
    NOFF =    0.9 
    VOFFCV =   0.02 
    DMCG =      0 
    DMCI =      0 
    DMDG =      0 
    DMCGT =      0 
    XGW =      0 
    XGL =      0 
    RSHG =    0.4 
    NGCON =      1 
    TCJ =  0.001 
    TPB =  0.005 
    TCJSW =  0.001 
    TPBSW =  0.005 
    TCJSWG =  0.001 
    TPBSWG =  0.005 
    SK0 =      0 
    SK1 =      0 
    SK2 =      0 
    SL =  2e-06 
    SW =  2e-06 
    K =      0 
    TNOM =  300.1 
    CGSO = 1.1e-10 
    CGDO = 1.1e-10 
    CGBO = 2.56e-11 
    XPART =      0 
    RSH =      5 
    JSS = 0.0001 
    JSWS =  1e-11 
    JSWGS =  1e-10 
    PBS =      1 
    MJS =    0.5 
    PBSWS =      1 
    MJSWS =   0.33 
    CJS = 0.0005 
    CJSWS =  5e-10 
    NJS =      1 
    PBSWGS =      1 
    MJSWGS =   0.33 
    CJSWGS =  3e-10 
    XTIS =      3 
    JSD = 0.0001 
    JSWD =  1e-11 
    JSWGD =  1e-10 
    PBD =      1 
    MJD =    0.5 
    PBSWD =      1 
    MJSWD =   0.33 
    CJD = 0.0005 
    CJSWD =  5e-10 
    NJD =      1 
    PBSWGD =      1 
    MJSWGD =   0.33 
    CJSWGD =  5e-10 
    XTID =      3 
    LMLT =      1 
    WMLT =      1 
    LINT = 3.75e-09 
    LL =      0 
    LLC =      0 
    LLN =      1 
    LW =      0 
    LWC =      0 
    LWN =      1 
    LWL =      0 
    LWLC =      0 
    LMIN =      0 
    LMAX =      1 
    WINT =  5e-09 
    WL =      0 
    WLC =      0 
    WLN =      1 
    WW =      0 
    WWC =      0 
    WWN =      1 
    WWL =      0 
    WWLC =      0 
    WMIN =      0 
    WMAX =      1 
    NOIA = 6.188e+40 
    NOIB = 1.5e+25 
    NOIC = 8.75e+09 
    EM = 4.1e+07 
    EF =      1 
    AF =      1 
    KF =      0 
    TRS =      0 
    TRD =      0 
 **warning**(nmos_vtl:m0)Warning:  Acde = 0.276941 may be too small in BSIM4 model with w=9e-08 l=5e-08.
  
  
      
 **info** set option symb=1 internally to help for convergence.
 *****************************************************************
 ******  option summary
 ******
 runlvl  = 3         bypass  = 2         
  

   *** monte carlo  index =            1 ***

       MONTE CARLO PARAMETER DEFINITIONS

 norm_1_random                   
     l_param         =  4.9851E-08  l_param         =  4.9851E-08
 norm_2_random                   
     wn_param        =  9.0010E-08  wn_param        =  9.0010E-08

 id_nmos= 1.2202e-04
 id_pmos=-1.6491e-04
 ion_nmos= 1.3557e+03
 ion_pmos= 9.1614e+02

   *** monte carlo  index =            2 ***

       MONTE CARLO PARAMETER DEFINITIONS

 norm_1_random                   
     l_param         =  4.9933E-08  l_param         =  4.9933E-08
 norm_2_random                   
     wn_param        =  8.9941E-08  wn_param        =  8.9941E-08

 id_nmos= 1.2168e-04
 id_pmos=-1.6438e-04
 ion_nmos= 1.3519e+03
 ion_pmos= 9.1322e+02

   *** monte carlo  index =            3 ***

       MONTE CARLO PARAMETER DEFINITIONS

 norm_1_random                   
     l_param         =  5.0012E-08  l_param         =  5.0012E-08
 norm_2_random                   
     wn_param        =  9.0898E-08  wn_param        =  9.0898E-08

 id_nmos= 1.2285e-04
 id_pmos=-1.6583e-04
 ion_nmos= 1.3650e+03
 ion_pmos= 9.2127e+02

   *** monte carlo  index =            4 ***

       MONTE CARLO PARAMETER DEFINITIONS

 norm_1_random                   
     l_param         =  5.0408E-08  l_param         =  5.0408E-08
 norm_2_random                   
     wn_param        =  9.0189E-08  wn_param        =  9.0189E-08

 id_nmos= 1.2069e-04
 id_pmos=-1.6261e-04
 ion_nmos= 1.3410e+03
 ion_pmos= 9.0340e+02

   *** monte carlo  index =            5 ***

       MONTE CARLO PARAMETER DEFINITIONS

 norm_1_random                   
     l_param         =  4.9928E-08  l_param         =  4.9928E-08
 norm_2_random                   
     wn_param        =  9.0452E-08  wn_param        =  9.0452E-08

 id_nmos= 1.2244e-04
 id_pmos=-1.6538e-04
 ion_nmos= 1.3604e+03
 ion_pmos= 9.1879e+02

   *** monte carlo  index =            6 ***

       MONTE CARLO PARAMETER DEFINITIONS

 norm_1_random                   
     l_param         =  4.9329E-08  l_param         =  4.9329E-08
 norm_2_random                   
     wn_param        =  9.0731E-08  wn_param        =  9.0731E-08

 id_nmos= 1.2465e-04
 id_pmos=-1.6890e-04
 ion_nmos= 1.3849e+03
 ion_pmos= 9.3831e+02

   *** monte carlo  index =            7 ***

       MONTE CARLO PARAMETER DEFINITIONS

 norm_1_random                   
     l_param         =  4.9856E-08  l_param         =  4.9856E-08
 norm_2_random                   
     wn_param        =  8.9342E-08  wn_param        =  8.9342E-08

 id_nmos= 1.2102e-04
 id_pmos=-1.6360e-04
 ion_nmos= 1.3447e+03
 ion_pmos= 9.0891e+02

   *** monte carlo  index =            8 ***

       MONTE CARLO PARAMETER DEFINITIONS

 norm_1_random                   
     l_param         =  5.0402E-08  l_param         =  5.0402E-08
 norm_2_random                   
     wn_param        =  8.8222E-08  wn_param        =  8.8222E-08

 id_nmos= 1.1786e-04
 id_pmos=-1.5893e-04
 ion_nmos= 1.3095e+03
 ion_pmos= 8.8296e+02

   *** monte carlo  index =            9 ***

       MONTE CARLO PARAMETER DEFINITIONS

 norm_1_random                   
     l_param         =  5.0134E-08  l_param         =  5.0134E-08
 norm_2_random                   
     wn_param        =  9.0017E-08  wn_param        =  9.0017E-08

 id_nmos= 1.2122e-04
 id_pmos=-1.6357e-04
 ion_nmos= 1.3468e+03
 ion_pmos= 9.0872e+02

   *** monte carlo  index =           10 ***

       MONTE CARLO PARAMETER DEFINITIONS

 norm_1_random                   
     l_param         =  5.0139E-08  l_param         =  5.0139E-08
 norm_2_random                   
     wn_param        =  8.8570E-08  wn_param        =  8.8570E-08

 id_nmos= 1.1909e-04
 id_pmos=-1.6080e-04
 ion_nmos= 1.3232e+03
 ion_pmos= 8.9331e+02

   *** monte carlo  index =           11 ***

       MONTE CARLO PARAMETER DEFINITIONS

 norm_1_random                   
     l_param         =  5.0465E-08  l_param         =  5.0465E-08
 norm_2_random                   
     wn_param        =  9.0474E-08  wn_param        =  9.0474E-08

 id_nmos= 1.2095e-04
 id_pmos=-1.6289e-04
 ion_nmos= 1.3438e+03
 ion_pmos= 9.0493e+02

   *** monte carlo  index =           12 ***

       MONTE CARLO PARAMETER DEFINITIONS

 norm_1_random                   
     l_param         =  4.9704E-08  l_param         =  4.9704E-08
 norm_2_random                   
     wn_param        =  8.8609E-08  wn_param        =  8.8609E-08

 id_nmos= 1.2038e-04
 id_pmos=-1.6293e-04
 ion_nmos= 1.3376e+03
 ion_pmos= 9.0515e+02

   *** monte carlo  index =           13 ***

       MONTE CARLO PARAMETER DEFINITIONS

 norm_1_random                   
     l_param         =  5.0401E-08  l_param         =  5.0401E-08
 norm_2_random                   
     wn_param        =  8.9296E-08  wn_param        =  8.9296E-08

 id_nmos= 1.1941e-04
 id_pmos=-1.6096e-04
 ion_nmos= 1.3268e+03
 ion_pmos= 8.9421e+02

   *** monte carlo  index =           14 ***

       MONTE CARLO PARAMETER DEFINITIONS

 norm_1_random                   
     l_param         =  4.9912E-08  l_param         =  4.9912E-08
 norm_2_random                   
     wn_param        =  8.9512E-08  wn_param        =  8.9512E-08

 id_nmos= 1.2111e-04
 id_pmos=-1.6366e-04
 ion_nmos= 1.3456e+03
 ion_pmos= 9.0923e+02

   *** monte carlo  index =           15 ***

       MONTE CARLO PARAMETER DEFINITIONS

 norm_1_random                   
     l_param         =  4.9917E-08  l_param         =  4.9917E-08
 norm_2_random                   
     wn_param        =  9.0863E-08  wn_param        =  9.0863E-08

 id_nmos= 1.2308e-04
 id_pmos=-1.6622e-04
 ion_nmos= 1.3675e+03
 ion_pmos= 9.2345e+02

   *** monte carlo  index =           16 ***

       MONTE CARLO PARAMETER DEFINITIONS

 norm_1_random                   
     l_param         =  5.0355E-08  l_param         =  5.0355E-08
 norm_2_random                   
     wn_param        =  8.9472E-08  wn_param        =  8.9472E-08

 id_nmos= 1.1980e-04
 id_pmos=-1.6150e-04
 ion_nmos= 1.3310e+03
 ion_pmos= 8.9724e+02

   *** monte carlo  index =           17 ***

       MONTE CARLO PARAMETER DEFINITIONS

 norm_1_random                   
     l_param         =  5.0084E-08  l_param         =  5.0084E-08
 norm_2_random                   
     wn_param        =  8.7868E-08  wn_param        =  8.7868E-08

 id_nmos= 1.1821e-04
 id_pmos=-1.5971e-04
 ion_nmos= 1.3135e+03
 ion_pmos= 8.8730e+02

   *** monte carlo  index =           18 ***

       MONTE CARLO PARAMETER DEFINITIONS

 norm_1_random                   
     l_param         =  4.9820E-08  l_param         =  4.9820E-08
 norm_2_random                   
     wn_param        =  9.0247E-08  wn_param        =  9.0247E-08

 id_nmos= 1.2246e-04
 id_pmos=-1.6552e-04
 ion_nmos= 1.3606e+03
 ion_pmos= 9.1952e+02

   *** monte carlo  index =           19 ***

       MONTE CARLO PARAMETER DEFINITIONS

 norm_1_random                   
     l_param         =  5.0010E-08  l_param         =  5.0010E-08
 norm_2_random                   
     wn_param        =  9.1227E-08  wn_param        =  9.1227E-08

 id_nmos= 1.2334e-04
 id_pmos=-1.6647e-04
 ion_nmos= 1.3704e+03
 ion_pmos= 9.2481e+02

   *** monte carlo  index =           20 ***

       MONTE CARLO PARAMETER DEFINITIONS

 norm_1_random                   
     l_param         =  5.0208E-08  l_param         =  5.0208E-08
 norm_2_random                   
     wn_param        =  8.9622E-08  wn_param        =  8.9622E-08

 id_nmos= 1.2043e-04
 id_pmos=-1.6247e-04
 ion_nmos= 1.3380e+03
 ion_pmos= 9.0261e+02

   *** monte carlo  index =           21 ***

       MONTE CARLO PARAMETER DEFINITIONS

 norm_1_random                   
     l_param         =  5.0067E-08  l_param         =  5.0067E-08
 norm_2_random                   
     wn_param        =  9.0653E-08  wn_param        =  9.0653E-08

 id_nmos= 1.2233e-04
 id_pmos=-1.6510e-04
 ion_nmos= 1.3592e+03
 ion_pmos= 9.1720e+02

   *** monte carlo  index =           22 ***

       MONTE CARLO PARAMETER DEFINITIONS

 norm_1_random                   
     l_param         =  5.0086E-08  l_param         =  5.0086E-08
 norm_2_random                   
     wn_param        =  9.1189E-08  wn_param        =  9.1189E-08

 id_nmos= 1.2306e-04
 id_pmos=-1.6603e-04
 ion_nmos= 1.3673e+03
 ion_pmos= 9.2237e+02

   *** monte carlo  index =           23 ***

       MONTE CARLO PARAMETER DEFINITIONS

 norm_1_random                   
     l_param         =  5.0002E-08  l_param         =  5.0002E-08
 norm_2_random                   
     wn_param        =  8.8827E-08  wn_param        =  8.8827E-08

 id_nmos= 1.1985e-04
 id_pmos=-1.6193e-04
 ion_nmos= 1.3316e+03
 ion_pmos= 8.9958e+02

   *** monte carlo  index =           24 ***

       MONTE CARLO PARAMETER DEFINITIONS

 norm_1_random                   
     l_param         =  5.0226E-08  l_param         =  5.0226E-08
 norm_2_random                   
     wn_param        =  9.0916E-08  wn_param        =  9.0916E-08

 id_nmos= 1.2226e-04
 id_pmos=-1.6484e-04
 ion_nmos= 1.3584e+03
 ion_pmos= 9.1576e+02

   *** monte carlo  index =           25 ***

       MONTE CARLO PARAMETER DEFINITIONS

 norm_1_random                   
     l_param         =  4.9651E-08  l_param         =  4.9651E-08
 norm_2_random                   
     wn_param        =  8.9959E-08  wn_param        =  8.9959E-08

 id_nmos= 1.2253e-04
 id_pmos=-1.6579e-04
 ion_nmos= 1.3614e+03
 ion_pmos= 9.2103e+02

   *** monte carlo  index =           26 ***

       MONTE CARLO PARAMETER DEFINITIONS

 norm_1_random                   
     l_param         =  5.0634E-08  l_param         =  5.0634E-08
 norm_2_random                   
     wn_param        =  9.0307E-08  wn_param        =  9.0307E-08

 id_nmos= 1.2024e-04
 id_pmos=-1.6180e-04
 ion_nmos= 1.3359e+03
 ion_pmos= 8.9888e+02

   *** monte carlo  index =           27 ***

       MONTE CARLO PARAMETER DEFINITIONS

 norm_1_random                   
     l_param         =  5.0143E-08  l_param         =  5.0143E-08
 norm_2_random                   
     wn_param        =  9.0611E-08  wn_param        =  9.0611E-08

 id_nmos= 1.2205e-04
 id_pmos=-1.6465e-04
 ion_nmos= 1.3561e+03
 ion_pmos= 9.1473e+02

   *** monte carlo  index =           28 ***

       MONTE CARLO PARAMETER DEFINITIONS

 norm_1_random                   
     l_param         =  5.0044E-08  l_param         =  5.0044E-08
 norm_2_random                   
     wn_param        =  8.9299E-08  wn_param        =  8.9299E-08

 id_nmos= 1.2042e-04
 id_pmos=-1.6263e-04
 ion_nmos= 1.3380e+03
 ion_pmos= 9.0348e+02

   *** monte carlo  index =           29 ***

       MONTE CARLO PARAMETER DEFINITIONS

 norm_1_random                   
     l_param         =  5.0248E-08  l_param         =  5.0248E-08
 norm_2_random                   
     wn_param        =  9.1081E-08  wn_param        =  9.1081E-08

 id_nmos= 1.2244e-04
 id_pmos=-1.6505e-04
 ion_nmos= 1.3604e+03
 ion_pmos= 9.1692e+02

   *** monte carlo  index =           30 ***

       MONTE CARLO PARAMETER DEFINITIONS

 norm_1_random                   
     l_param         =  4.9944E-08  l_param         =  4.9944E-08
 norm_2_random                   
     wn_param        =  9.0362E-08  wn_param        =  9.0362E-08

 id_nmos= 1.2227e-04
 id_pmos=-1.6513e-04
 ion_nmos= 1.3585e+03
 ion_pmos= 9.1740e+02

   *** monte carlo  index =           31 ***

       MONTE CARLO PARAMETER DEFINITIONS

 norm_1_random                   
     l_param         =  5.0088E-08  l_param         =  5.0088E-08
 norm_2_random                   
     wn_param        =  9.0577E-08  wn_param        =  9.0577E-08

 id_nmos= 1.2217e-04
 id_pmos=-1.6485e-04
 ion_nmos= 1.3573e+03
 ion_pmos= 9.1585e+02

   *** monte carlo  index =           32 ***

       MONTE CARLO PARAMETER DEFINITIONS

 norm_1_random                   
     l_param         =  5.0130E-08  l_param         =  5.0130E-08
 norm_2_random                   
     wn_param        =  8.9742E-08  wn_param        =  8.9742E-08

 id_nmos= 1.2082e-04
 id_pmos=-1.6306e-04
 ion_nmos= 1.3424e+03
 ion_pmos= 9.0591e+02

   *** monte carlo  index =           33 ***

       MONTE CARLO PARAMETER DEFINITIONS

 norm_1_random                   
     l_param         =  5.0060E-08  l_param         =  5.0060E-08
 norm_2_random                   
     wn_param        =  9.0596E-08  wn_param        =  9.0596E-08

 id_nmos= 1.2227e-04
 id_pmos=-1.6502e-04
 ion_nmos= 1.3585e+03
 ion_pmos= 9.1677e+02

   *** monte carlo  index =           34 ***

       MONTE CARLO PARAMETER DEFINITIONS

 norm_1_random                   
     l_param         =  4.9862E-08  l_param         =  4.9862E-08
 norm_2_random                   
     wn_param        =  9.0285E-08  wn_param        =  9.0285E-08

 id_nmos= 1.2239e-04
 id_pmos=-1.6538e-04
 ion_nmos= 1.3599e+03
 ion_pmos= 9.1878e+02

   *** monte carlo  index =           35 ***

       MONTE CARLO PARAMETER DEFINITIONS

 norm_1_random                   
     l_param         =  5.0056E-08  l_param         =  5.0056E-08
 norm_2_random                   
     wn_param        =  9.1699E-08  wn_param        =  9.1699E-08

 id_nmos= 1.2390e-04
 id_pmos=-1.6714e-04
 ion_nmos= 1.3766e+03
 ion_pmos= 9.2856e+02

   *** monte carlo  index =           36 ***

       MONTE CARLO PARAMETER DEFINITIONS

 norm_1_random                   
     l_param         =  5.0273E-08  l_param         =  5.0273E-08
 norm_2_random                   
     wn_param        =  8.9721E-08  wn_param        =  8.9721E-08

 id_nmos= 1.2039e-04
 id_pmos=-1.6236e-04
 ion_nmos= 1.3376e+03
 ion_pmos= 9.0198e+02

   *** monte carlo  index =           37 ***

       MONTE CARLO PARAMETER DEFINITIONS

 norm_1_random                   
     l_param         =  5.0178E-08  l_param         =  5.0178E-08
 norm_2_random                   
     wn_param        =  8.8243E-08  wn_param        =  8.8243E-08

 id_nmos= 1.1850e-04
 id_pmos=-1.5999e-04
 ion_nmos= 1.3166e+03
 ion_pmos= 8.8884e+02

   *** monte carlo  index =           38 ***

       MONTE CARLO PARAMETER DEFINITIONS

 norm_1_random                   
     l_param         =  5.0018E-08  l_param         =  5.0018E-08
 norm_2_random                   
     wn_param        =  8.9697E-08  wn_param        =  8.9697E-08

 id_nmos= 1.2108e-04
 id_pmos=-1.6351e-04
 ion_nmos= 1.3452e+03
 ion_pmos= 9.0837e+02

   *** monte carlo  index =           39 ***

       MONTE CARLO PARAMETER DEFINITIONS

 norm_1_random                   
     l_param         =  5.0709E-08  l_param         =  5.0709E-08
 norm_2_random                   
     wn_param        =  9.1082E-08  wn_param        =  9.1082E-08

 id_nmos= 1.2115e-04
 id_pmos=-1.6291e-04
 ion_nmos= 1.3461e+03
 ion_pmos= 9.0505e+02

   *** monte carlo  index =           40 ***

       MONTE CARLO PARAMETER DEFINITIONS

 norm_1_random                   
     l_param         =  5.0380E-08  l_param         =  5.0380E-08
 norm_2_random                   
     wn_param        =  8.9308E-08  wn_param        =  8.9308E-08

 id_nmos= 1.1949e-04
 id_pmos=-1.6108e-04
 ion_nmos= 1.3276e+03
 ion_pmos= 8.9488e+02

   *** monte carlo  index =           41 ***

       MONTE CARLO PARAMETER DEFINITIONS

 norm_1_random                   
     l_param         =  4.9908E-08  l_param         =  4.9908E-08
 norm_2_random                   
     wn_param        =  9.0733E-08  wn_param        =  9.0733E-08

 id_nmos= 1.2291e-04
 id_pmos=-1.6601e-04
 ion_nmos= 1.3657e+03
 ion_pmos= 9.2230e+02

   *** monte carlo  index =           42 ***

       MONTE CARLO PARAMETER DEFINITIONS

 norm_1_random                   
     l_param         =  4.9999E-08  l_param         =  4.9999E-08
 norm_2_random                   
     wn_param        =  9.0152E-08  wn_param        =  9.0152E-08

 id_nmos= 1.2180e-04
 id_pmos=-1.6447e-04
 ion_nmos= 1.3533e+03
 ion_pmos= 9.1370e+02

   *** monte carlo  index =           43 ***

       MONTE CARLO PARAMETER DEFINITIONS

 norm_1_random                   
     l_param         =  5.0772E-08  l_param         =  5.0772E-08
 norm_2_random                   
     wn_param        =  9.0608E-08  wn_param        =  9.0608E-08

 id_nmos= 1.2029e-04
 id_pmos=-1.6174e-04
 ion_nmos= 1.3366e+03
 ion_pmos= 8.9853e+02

   *** monte carlo  index =           44 ***

       MONTE CARLO PARAMETER DEFINITIONS

 norm_1_random                   
     l_param         =  4.9858E-08  l_param         =  4.9858E-08
 norm_2_random                   
     wn_param        =  8.9505E-08  wn_param        =  8.9505E-08

 id_nmos= 1.2126e-04
 id_pmos=-1.6391e-04
 ion_nmos= 1.3472e+03
 ion_pmos= 9.1059e+02

   *** monte carlo  index =           45 ***

       MONTE CARLO PARAMETER DEFINITIONS

 norm_1_random                   
     l_param         =  5.0533E-08  l_param         =  5.0533E-08
 norm_2_random                   
     wn_param        =  8.8401E-08  wn_param        =  8.8401E-08

 id_nmos= 1.1776e-04
 id_pmos=-1.5868e-04
 ion_nmos= 1.3084e+03
 ion_pmos= 8.8154e+02

   *** monte carlo  index =           46 ***

       MONTE CARLO PARAMETER DEFINITIONS

 norm_1_random                   
     l_param         =  4.9981E-08  l_param         =  4.9981E-08
 norm_2_random                   
     wn_param        =  8.8939E-08  wn_param        =  8.8939E-08

 id_nmos= 1.2007e-04
 id_pmos=-1.6224e-04
 ion_nmos= 1.3341e+03
 ion_pmos= 9.0132e+02

   *** monte carlo  index =           47 ***

       MONTE CARLO PARAMETER DEFINITIONS

 norm_1_random                   
     l_param         =  4.9790E-08  l_param         =  4.9790E-08
 norm_2_random                   
     wn_param        =  8.9943E-08  wn_param        =  8.9943E-08

 id_nmos= 1.2210e-04
 id_pmos=-1.6508e-04
 ion_nmos= 1.3566e+03
 ion_pmos= 9.1708e+02

   *** monte carlo  index =           48 ***

       MONTE CARLO PARAMETER DEFINITIONS

 norm_1_random                   
     l_param         =  4.9988E-08  l_param         =  4.9988E-08
 norm_2_random                   
     wn_param        =  9.0137E-08  wn_param        =  9.0137E-08

 id_nmos= 1.2181e-04
 id_pmos=-1.6449e-04
 ion_nmos= 1.3534e+03
 ion_pmos= 9.1382e+02

   *** monte carlo  index =           49 ***

       MONTE CARLO PARAMETER DEFINITIONS

 norm_1_random                   
     l_param         =  5.0548E-08  l_param         =  5.0548E-08
 norm_2_random                   
     wn_param        =  9.0948E-08  wn_param        =  9.0948E-08

 id_nmos= 1.2140e-04
 id_pmos=-1.6339e-04
 ion_nmos= 1.3489e+03
 ion_pmos= 9.0774e+02

   *** monte carlo  index =           50 ***

       MONTE CARLO PARAMETER DEFINITIONS

 norm_1_random                   
     l_param         =  4.9741E-08  l_param         =  4.9741E-08
 norm_2_random                   
     wn_param        =  9.0486E-08  wn_param        =  9.0486E-08

 id_nmos= 1.2304e-04
 id_pmos=-1.6636e-04
 ion_nmos= 1.3671e+03
 ion_pmos= 9.2419e+02

   *** monte carlo  index =           51 ***

       MONTE CARLO PARAMETER DEFINITIONS

 norm_1_random                   
     l_param         =  5.0274E-08  l_param         =  5.0274E-08
 norm_2_random                   
     wn_param        =  8.9379E-08  wn_param        =  8.9379E-08

 id_nmos= 1.1989e-04
 id_pmos=-1.6170e-04
 ion_nmos= 1.3320e+03
 ion_pmos= 8.9833e+02

   *** monte carlo  index =           52 ***

       MONTE CARLO PARAMETER DEFINITIONS

 norm_1_random                   
     l_param         =  5.0556E-08  l_param         =  5.0556E-08
 norm_2_random                   
     wn_param        =  9.0632E-08  wn_param        =  9.0632E-08

 id_nmos= 1.2092e-04
 id_pmos=-1.6276e-04
 ion_nmos= 1.3435e+03
 ion_pmos= 9.0423e+02

   *** monte carlo  index =           53 ***

       MONTE CARLO PARAMETER DEFINITIONS

 norm_1_random                   
     l_param         =  5.0348E-08  l_param         =  5.0348E-08
 norm_2_random                   
     wn_param        =  8.9917E-08  wn_param        =  8.9917E-08

 id_nmos= 1.2047e-04
 id_pmos=-1.6238e-04
 ion_nmos= 1.3385e+03
 ion_pmos= 9.0210e+02

   *** monte carlo  index =           54 ***

       MONTE CARLO PARAMETER DEFINITIONS

 norm_1_random                   
     l_param         =  5.0238E-08  l_param         =  5.0238E-08
 norm_2_random                   
     wn_param        =  9.0027E-08  wn_param        =  9.0027E-08

 id_nmos= 1.2093e-04
 id_pmos=-1.6310e-04
 ion_nmos= 1.3437e+03
 ion_pmos= 9.0610e+02

   *** monte carlo  index =           55 ***

       MONTE CARLO PARAMETER DEFINITIONS

 norm_1_random                   
     l_param         =  4.9944E-08  l_param         =  4.9944E-08
 norm_2_random                   
     wn_param        =  8.9057E-08  wn_param        =  8.9057E-08

 id_nmos= 1.2035e-04
 id_pmos=-1.6264e-04
 ion_nmos= 1.3372e+03
 ion_pmos= 9.0356e+02

   *** monte carlo  index =           56 ***

       MONTE CARLO PARAMETER DEFINITIONS

 norm_1_random                   
     l_param         =  4.9384E-08  l_param         =  4.9384E-08
 norm_2_random                   
     wn_param        =  9.1487E-08  wn_param        =  9.1487E-08

 id_nmos= 1.2560e-04
 id_pmos=-1.7008e-04
 ion_nmos= 1.3955e+03
 ion_pmos= 9.4491e+02

   *** monte carlo  index =           57 ***

       MONTE CARLO PARAMETER DEFINITIONS

 norm_1_random                   
     l_param         =  4.9611E-08  l_param         =  4.9611E-08
 norm_2_random                   
     wn_param        =  8.9305E-08  wn_param        =  8.9305E-08

 id_nmos= 1.2168e-04
 id_pmos=-1.6472e-04
 ion_nmos= 1.3520e+03
 ion_pmos= 9.1511e+02

   *** monte carlo  index =           58 ***

       MONTE CARLO PARAMETER DEFINITIONS

 norm_1_random                   
     l_param         =  4.9821E-08  l_param         =  4.9821E-08
 norm_2_random                   
     wn_param        =  9.0875E-08  wn_param        =  9.0875E-08

 id_nmos= 1.2338e-04
 id_pmos=-1.6671e-04
 ion_nmos= 1.3708e+03
 ion_pmos= 9.2618e+02

   *** monte carlo  index =           59 ***

       MONTE CARLO PARAMETER DEFINITIONS

 norm_1_random                   
     l_param         =  4.9906E-08  l_param         =  4.9906E-08
 norm_2_random                   
     wn_param        =  8.9075E-08  wn_param        =  8.9075E-08

 id_nmos= 1.2049e-04
 id_pmos=-1.6285e-04
 ion_nmos= 1.3387e+03
 ion_pmos= 9.0474e+02

   *** monte carlo  index =           60 ***

       MONTE CARLO PARAMETER DEFINITIONS

 norm_1_random                   
     l_param         =  4.9879E-08  l_param         =  4.9879E-08
 norm_2_random                   
     wn_param        =  8.8703E-08  wn_param        =  8.8703E-08

 id_nmos= 1.2002e-04
 id_pmos=-1.6227e-04
 ion_nmos= 1.3335e+03
 ion_pmos= 9.0149e+02

   *** monte carlo  index =           61 ***

       MONTE CARLO PARAMETER DEFINITIONS

 norm_1_random                   
     l_param         =  4.9789E-08  l_param         =  4.9789E-08
 norm_2_random                   
     wn_param        =  9.0513E-08  wn_param        =  9.0513E-08

 id_nmos= 1.2294e-04
 id_pmos=-1.6618e-04
 ion_nmos= 1.3660e+03
 ion_pmos= 9.2319e+02

   *** monte carlo  index =           62 ***

       MONTE CARLO PARAMETER DEFINITIONS

 norm_1_random                   
     l_param         =  4.9638E-08  l_param         =  4.9638E-08
 norm_2_random                   
     wn_param        =  8.9905E-08  wn_param        =  8.9905E-08

 id_nmos= 1.2249e-04
 id_pmos=-1.6575e-04
 ion_nmos= 1.3610e+03
 ion_pmos= 9.2082e+02

   *** monte carlo  index =           63 ***

       MONTE CARLO PARAMETER DEFINITIONS

 norm_1_random                   
     l_param         =  5.0265E-08  l_param         =  5.0265E-08
 norm_2_random                   
     wn_param        =  9.0529E-08  wn_param        =  9.0529E-08

 id_nmos= 1.2159e-04
 id_pmos=-1.6392e-04
 ion_nmos= 1.3509e+03
 ion_pmos= 9.1067e+02

   *** monte carlo  index =           64 ***

       MONTE CARLO PARAMETER DEFINITIONS

 norm_1_random                   
     l_param         =  5.0435E-08  l_param         =  5.0435E-08
 norm_2_random                   
     wn_param        =  8.9734E-08  wn_param        =  8.9734E-08

 id_nmos= 1.1996e-04
 id_pmos=-1.6163e-04
 ion_nmos= 1.3328e+03
 ion_pmos= 8.9795e+02

   *** monte carlo  index =           65 ***

       MONTE CARLO PARAMETER DEFINITIONS

 norm_1_random                   
     l_param         =  4.9939E-08  l_param         =  4.9939E-08
 norm_2_random                   
     wn_param        =  9.0855E-08  wn_param        =  9.0855E-08

 id_nmos= 1.2300e-04
 id_pmos=-1.6610e-04
 ion_nmos= 1.3667e+03
 ion_pmos= 9.2277e+02

   *** monte carlo  index =           66 ***

       MONTE CARLO PARAMETER DEFINITIONS

 norm_1_random                   
     l_param         =  4.9456E-08  l_param         =  4.9456E-08
 norm_2_random                   
     wn_param        =  9.0730E-08  wn_param        =  9.0730E-08

 id_nmos= 1.2426e-04
 id_pmos=-1.6825e-04
 ion_nmos= 1.3806e+03
 ion_pmos= 9.3471e+02

   *** monte carlo  index =           67 ***

       MONTE CARLO PARAMETER DEFINITIONS

 norm_1_random                   
     l_param         =  4.9519E-08  l_param         =  4.9519E-08
 norm_2_random                   
     wn_param        =  9.0228E-08  wn_param        =  9.0228E-08

 id_nmos= 1.2332e-04
 id_pmos=-1.6696e-04
 ion_nmos= 1.3702e+03
 ion_pmos= 9.2754e+02

   *** monte carlo  index =           68 ***

       MONTE CARLO PARAMETER DEFINITIONS

 norm_1_random                   
     l_param         =  4.9821E-08  l_param         =  4.9821E-08
 norm_2_random                   
     wn_param        =  9.2031E-08  wn_param        =  9.2031E-08

 id_nmos= 1.2508e-04
 id_pmos=-1.6893e-04
 ion_nmos= 1.3897e+03
 ion_pmos= 9.3848e+02

   *** monte carlo  index =           69 ***

       MONTE CARLO PARAMETER DEFINITIONS

 norm_1_random                   
     l_param         =  4.9810E-08  l_param         =  4.9810E-08
 norm_2_random                   
     wn_param        =  9.1823E-08  wn_param        =  9.1823E-08

 id_nmos= 1.2480e-04
 id_pmos=-1.6858e-04
 ion_nmos= 1.3867e+03
 ion_pmos= 9.3657e+02

   *** monte carlo  index =           70 ***

       MONTE CARLO PARAMETER DEFINITIONS

 norm_1_random                   
     l_param         =  5.0121E-08  l_param         =  5.0121E-08
 norm_2_random                   
     wn_param        =  8.9467E-08  wn_param        =  8.9467E-08

 id_nmos= 1.2045e-04
 id_pmos=-1.6259e-04
 ion_nmos= 1.3383e+03
 ion_pmos= 9.0326e+02

   *** monte carlo  index =           71 ***

       MONTE CARLO PARAMETER DEFINITIONS

 norm_1_random                   
     l_param         =  4.9904E-08  l_param         =  4.9904E-08
 norm_2_random                   
     wn_param        =  9.0402E-08  wn_param        =  9.0402E-08

 id_nmos= 1.2244e-04
 id_pmos=-1.6540e-04
 ion_nmos= 1.3604e+03
 ion_pmos= 9.1888e+02

   *** monte carlo  index =           72 ***

       MONTE CARLO PARAMETER DEFINITIONS

 norm_1_random                   
     l_param         =  5.0039E-08  l_param         =  5.0039E-08
 norm_2_random                   
     wn_param        =  8.9194E-08  wn_param        =  8.9194E-08

 id_nmos= 1.2028e-04
 id_pmos=-1.6245e-04
 ion_nmos= 1.3364e+03
 ion_pmos= 9.0252e+02

   *** monte carlo  index =           73 ***

       MONTE CARLO PARAMETER DEFINITIONS

 norm_1_random                   
     l_param         =  4.9636E-08  l_param         =  4.9636E-08
 norm_2_random                   
     wn_param        =  9.1549E-08  wn_param        =  9.1549E-08

 id_nmos= 1.2492e-04
 id_pmos=-1.6893e-04
 ion_nmos= 1.3880e+03
 ion_pmos= 9.3848e+02

   *** monte carlo  index =           74 ***

       MONTE CARLO PARAMETER DEFINITIONS

 norm_1_random                   
     l_param         =  4.9728E-08  l_param         =  4.9728E-08
 norm_2_random                   
     wn_param        =  9.1100E-08  wn_param        =  9.1100E-08

 id_nmos= 1.2399e-04
 id_pmos=-1.6760e-04
 ion_nmos= 1.3776e+03
 ion_pmos= 9.3113e+02

   *** monte carlo  index =           75 ***

       MONTE CARLO PARAMETER DEFINITIONS

 norm_1_random                   
     l_param         =  5.0052E-08  l_param         =  5.0052E-08
 norm_2_random                   
     wn_param        =  8.9017E-08  wn_param        =  8.9017E-08

 id_nmos= 1.1999e-04
 id_pmos=-1.6206e-04
 ion_nmos= 1.3331e+03
 ion_pmos= 9.0030e+02

   *** monte carlo  index =           76 ***

       MONTE CARLO PARAMETER DEFINITIONS

 norm_1_random                   
     l_param         =  5.0214E-08  l_param         =  5.0214E-08
 norm_2_random                   
     wn_param        =  8.9985E-08  wn_param        =  8.9985E-08

 id_nmos= 1.2094e-04
 id_pmos=-1.6313e-04
 ion_nmos= 1.3437e+03
 ion_pmos= 9.0628e+02

   *** monte carlo  index =           77 ***

       MONTE CARLO PARAMETER DEFINITIONS

 norm_1_random                   
     l_param         =  5.0283E-08  l_param         =  5.0283E-08
 norm_2_random                   
     wn_param        =  9.0396E-08  wn_param        =  9.0396E-08

 id_nmos= 1.2134e-04
 id_pmos=-1.6359e-04
 ion_nmos= 1.3482e+03
 ion_pmos= 9.0880e+02

   *** monte carlo  index =           78 ***

       MONTE CARLO PARAMETER DEFINITIONS

 norm_1_random                   
     l_param         =  5.0170E-08  l_param         =  5.0170E-08
 norm_2_random                   
     wn_param        =  9.0117E-08  wn_param        =  9.0117E-08

 id_nmos= 1.2126e-04
 id_pmos=-1.6359e-04
 ion_nmos= 1.3473e+03
 ion_pmos= 9.0882e+02

   *** monte carlo  index =           79 ***

       MONTE CARLO PARAMETER DEFINITIONS

 norm_1_random                   
     l_param         =  5.0267E-08  l_param         =  5.0267E-08
 norm_2_random                   
     wn_param        =  8.9700E-08  wn_param        =  8.9700E-08

 id_nmos= 1.2038e-04
 id_pmos=-1.6234e-04
 ion_nmos= 1.3375e+03
 ion_pmos= 9.0190e+02

   *** monte carlo  index =           80 ***

       MONTE CARLO PARAMETER DEFINITIONS

 norm_1_random                   
     l_param         =  5.0133E-08  l_param         =  5.0133E-08
 norm_2_random                   
     wn_param        =  8.8748E-08  wn_param        =  8.8748E-08

 id_nmos= 1.1936e-04
 id_pmos=-1.6116e-04
 ion_nmos= 1.3262e+03
 ion_pmos= 8.9534e+02

   *** monte carlo  index =           81 ***

       MONTE CARLO PARAMETER DEFINITIONS

 norm_1_random                   
     l_param         =  5.0128E-08  l_param         =  5.0128E-08
 norm_2_random                   
     wn_param        =  8.9455E-08  wn_param        =  8.9455E-08

 id_nmos= 1.2041e-04
 id_pmos=-1.6253e-04
 ion_nmos= 1.3378e+03
 ion_pmos= 9.0293e+02

   *** monte carlo  index =           82 ***

       MONTE CARLO PARAMETER DEFINITIONS

 norm_1_random                   
     l_param         =  4.9623E-08  l_param         =  4.9623E-08
 norm_2_random                   
     wn_param        =  9.0095E-08  wn_param        =  9.0095E-08

 id_nmos= 1.2281e-04
 id_pmos=-1.6619e-04
 ion_nmos= 1.3646e+03
 ion_pmos= 9.2325e+02

   *** monte carlo  index =           83 ***

       MONTE CARLO PARAMETER DEFINITIONS

 norm_1_random                   
     l_param         =  5.0333E-08  l_param         =  5.0333E-08
 norm_2_random                   
     wn_param        =  8.8689E-08  wn_param        =  8.8689E-08

 id_nmos= 1.1872e-04
 id_pmos=-1.6013e-04
 ion_nmos= 1.3191e+03
 ion_pmos= 8.8959e+02

   *** monte carlo  index =           84 ***

       MONTE CARLO PARAMETER DEFINITIONS

 norm_1_random                   
     l_param         =  5.0521E-08  l_param         =  5.0521E-08
 norm_2_random                   
     wn_param        =  9.0444E-08  wn_param        =  9.0444E-08

 id_nmos= 1.2075e-04
 id_pmos=-1.6257e-04
 ion_nmos= 1.3416e+03
 ion_pmos= 9.0317e+02

   *** monte carlo  index =           85 ***

       MONTE CARLO PARAMETER DEFINITIONS

 norm_1_random                   
     l_param         =  5.0616E-08  l_param         =  5.0616E-08
 norm_2_random                   
     wn_param        =  9.0505E-08  wn_param        =  9.0505E-08

 id_nmos= 1.2057e-04
 id_pmos=-1.6225e-04
 ion_nmos= 1.3396e+03
 ion_pmos= 9.0139e+02

   *** monte carlo  index =           86 ***

       MONTE CARLO PARAMETER DEFINITIONS

 norm_1_random                   
     l_param         =  5.0191E-08  l_param         =  5.0191E-08
 norm_2_random                   
     wn_param        =  8.9184E-08  wn_param        =  8.9184E-08

 id_nmos= 1.1984e-04
 id_pmos=-1.6172e-04
 ion_nmos= 1.3315e+03
 ion_pmos= 8.9843e+02

   *** monte carlo  index =           87 ***

       MONTE CARLO PARAMETER DEFINITIONS

 norm_1_random                   
     l_param         =  4.9661E-08  l_param         =  4.9661E-08
 norm_2_random                   
     wn_param        =  9.0374E-08  wn_param        =  9.0374E-08

 id_nmos= 1.2312e-04
 id_pmos=-1.6654e-04
 ion_nmos= 1.3679e+03
 ion_pmos= 9.2521e+02

   *** monte carlo  index =           88 ***

       MONTE CARLO PARAMETER DEFINITIONS

 norm_1_random                   
     l_param         =  5.0153E-08  l_param         =  5.0153E-08
 norm_2_random                   
     wn_param        =  9.1063E-08  wn_param        =  9.1063E-08

 id_nmos= 1.2268e-04
 id_pmos=-1.6546e-04
 ion_nmos= 1.3631e+03
 ion_pmos= 9.1923e+02

   *** monte carlo  index =           89 ***

       MONTE CARLO PARAMETER DEFINITIONS

 norm_1_random                   
     l_param         =  5.0045E-08  l_param         =  5.0045E-08
 norm_2_random                   
     wn_param        =  8.9015E-08  wn_param        =  8.9015E-08

 id_nmos= 1.2000e-04
 id_pmos=-1.6208e-04
 ion_nmos= 1.3333e+03
 ion_pmos= 9.0046e+02

   *** monte carlo  index =           90 ***

       MONTE CARLO PARAMETER DEFINITIONS

 norm_1_random                   
     l_param         =  4.9758E-08  l_param         =  4.9758E-08
 norm_2_random                   
     wn_param        =  8.9594E-08  wn_param        =  8.9594E-08

 id_nmos= 1.2168e-04
 id_pmos=-1.6456e-04
 ion_nmos= 1.3519e+03
 ion_pmos= 9.1421e+02

   *** monte carlo  index =           91 ***

       MONTE CARLO PARAMETER DEFINITIONS

 norm_1_random                   
     l_param         =  4.9995E-08  l_param         =  4.9995E-08
 norm_2_random                   
     wn_param        =  9.0083E-08  wn_param        =  9.0083E-08

 id_nmos= 1.2171e-04
 id_pmos=-1.6435e-04
 ion_nmos= 1.3523e+03
 ion_pmos= 9.1307e+02

   *** monte carlo  index =           92 ***

       MONTE CARLO PARAMETER DEFINITIONS

 norm_1_random                   
     l_param         =  5.0421E-08  l_param         =  5.0421E-08
 norm_2_random                   
     wn_param        =  8.9025E-08  wn_param        =  8.9025E-08

 id_nmos= 1.1897e-04
 id_pmos=-1.6036e-04
 ion_nmos= 1.3218e+03
 ion_pmos= 8.9088e+02

   *** monte carlo  index =           93 ***

       MONTE CARLO PARAMETER DEFINITIONS

 norm_1_random                   
     l_param         =  4.9882E-08  l_param         =  4.9882E-08
 norm_2_random                   
     wn_param        =  9.1482E-08  wn_param        =  9.1482E-08

 id_nmos= 1.2409e-04
 id_pmos=-1.6758e-04
 ion_nmos= 1.3787e+03
 ion_pmos= 9.3097e+02

   *** monte carlo  index =           94 ***

       MONTE CARLO PARAMETER DEFINITIONS

 norm_1_random                   
     l_param         =  5.0011E-08  l_param         =  5.0011E-08
 norm_2_random                   
     wn_param        =  8.9393E-08  wn_param        =  8.9393E-08

 id_nmos= 1.2065e-04
 id_pmos=-1.6296e-04
 ion_nmos= 1.3405e+03
 ion_pmos= 9.0534e+02

   *** monte carlo  index =           95 ***

       MONTE CARLO PARAMETER DEFINITIONS

 norm_1_random                   
     l_param         =  5.0633E-08  l_param         =  5.0633E-08
 norm_2_random                   
     wn_param        =  8.9731E-08  wn_param        =  8.9731E-08

 id_nmos= 1.1941e-04
 id_pmos=-1.6072e-04
 ion_nmos= 1.3267e+03
 ion_pmos= 8.9290e+02

   *** monte carlo  index =           96 ***

       MONTE CARLO PARAMETER DEFINITIONS

 norm_1_random                   
     l_param         =  5.0332E-08  l_param         =  5.0332E-08
 norm_2_random                   
     wn_param        =  9.1354E-08  wn_param        =  9.1354E-08

 id_nmos= 1.2260e-04
 id_pmos=-1.6517e-04
 ion_nmos= 1.3621e+03
 ion_pmos= 9.1759e+02

   *** monte carlo  index =           97 ***

       MONTE CARLO PARAMETER DEFINITIONS

 norm_1_random                   
     l_param         =  4.9853E-08  l_param         =  4.9853E-08
 norm_2_random                   
     wn_param        =  8.9893E-08  wn_param        =  8.9893E-08

 id_nmos= 1.2184e-04
 id_pmos=-1.6468e-04
 ion_nmos= 1.3538e+03
 ion_pmos= 9.1487e+02

   *** monte carlo  index =           98 ***

       MONTE CARLO PARAMETER DEFINITIONS

 norm_1_random                   
     l_param         =  5.0136E-08  l_param         =  5.0136E-08
 norm_2_random                   
     wn_param        =  8.8527E-08  wn_param        =  8.8527E-08

 id_nmos= 1.1903e-04
 id_pmos=-1.6073e-04
 ion_nmos= 1.3225e+03
 ion_pmos= 8.9293e+02

   *** monte carlo  index =           99 ***

       MONTE CARLO PARAMETER DEFINITIONS

 norm_1_random                   
     l_param         =  4.9961E-08  l_param         =  4.9961E-08
 norm_2_random                   
     wn_param        =  8.8379E-08  wn_param        =  8.8379E-08

 id_nmos= 1.1931e-04
 id_pmos=-1.6126e-04
 ion_nmos= 1.3256e+03
 ion_pmos= 8.9589e+02

   *** monte carlo  index =          100 ***

       MONTE CARLO PARAMETER DEFINITIONS

 norm_1_random                   
     l_param         =  4.9672E-08  l_param         =  4.9672E-08
 norm_2_random                   
     wn_param        =  8.9388E-08  wn_param        =  8.9388E-08

 id_nmos= 1.2163e-04
 id_pmos=-1.6459e-04
 ion_nmos= 1.3514e+03
 ion_pmos= 9.1436e+02

   *** monte carlo  index =          101 ***

       MONTE CARLO PARAMETER DEFINITIONS

 norm_1_random                   
     l_param         =  5.0419E-08  l_param         =  5.0419E-08
 norm_2_random                   
     wn_param        =  9.0357E-08  wn_param        =  9.0357E-08

 id_nmos= 1.2091e-04
 id_pmos=-1.6288e-04
 ion_nmos= 1.3433e+03
 ion_pmos= 9.0488e+02

   *** monte carlo  index =          102 ***

       MONTE CARLO PARAMETER DEFINITIONS

 norm_1_random                   
     l_param         =  5.0106E-08  l_param         =  5.0106E-08
 norm_2_random                   
     wn_param        =  8.9309E-08  wn_param        =  8.9309E-08

 id_nmos= 1.2026e-04
 id_pmos=-1.6235e-04
 ion_nmos= 1.3362e+03
 ion_pmos= 9.0195e+02

   *** monte carlo  index =          103 ***

       MONTE CARLO PARAMETER DEFINITIONS

 norm_1_random                   
     l_param         =  5.0173E-08  l_param         =  5.0173E-08
 norm_2_random                   
     wn_param        =  8.9885E-08  wn_param        =  8.9885E-08

 id_nmos= 1.2091e-04
 id_pmos=-1.6313e-04
 ion_nmos= 1.3434e+03
 ion_pmos= 9.0629e+02

   *** monte carlo  index =          104 ***

       MONTE CARLO PARAMETER DEFINITIONS

 norm_1_random                   
     l_param         =  5.0195E-08  l_param         =  5.0195E-08
 norm_2_random                   
     wn_param        =  9.0399E-08  wn_param        =  9.0399E-08

 id_nmos= 1.2160e-04
 id_pmos=-1.6401e-04
 ion_nmos= 1.3510e+03
 ion_pmos= 9.1115e+02

   *** monte carlo  index =          105 ***

       MONTE CARLO PARAMETER DEFINITIONS

 norm_1_random                   
     l_param         =  4.9291E-08  l_param         =  4.9291E-08
 norm_2_random                   
     wn_param        =  8.9410E-08  wn_param        =  8.9410E-08

 id_nmos= 1.2280e-04
 id_pmos=-1.6652e-04
 ion_nmos= 1.3644e+03
 ion_pmos= 9.2508e+02

   *** monte carlo  index =          106 ***

       MONTE CARLO PARAMETER DEFINITIONS

 norm_1_random                   
     l_param         =  5.0187E-08  l_param         =  5.0187E-08
 norm_2_random                   
     wn_param        =  9.0843E-08  wn_param        =  9.0843E-08

 id_nmos= 1.2227e-04
 id_pmos=-1.6488e-04
 ion_nmos= 1.3585e+03
 ion_pmos= 9.1601e+02

   *** monte carlo  index =          107 ***

       MONTE CARLO PARAMETER DEFINITIONS

 norm_1_random                   
     l_param         =  5.0067E-08  l_param         =  5.0067E-08
 norm_2_random                   
     wn_param        =  9.0725E-08  wn_param        =  9.0725E-08

 id_nmos= 1.2244e-04
 id_pmos=-1.6523e-04
 ion_nmos= 1.3604e+03
 ion_pmos= 9.1795e+02

   *** monte carlo  index =          108 ***

       MONTE CARLO PARAMETER DEFINITIONS

 norm_1_random                   
     l_param         =  5.0106E-08  l_param         =  5.0106E-08
 norm_2_random                   
     wn_param        =  9.1259E-08  wn_param        =  9.1259E-08

 id_nmos= 1.2311e-04
 id_pmos=-1.6606e-04
 ion_nmos= 1.3678e+03
 ion_pmos= 9.2255e+02

   *** monte carlo  index =          109 ***

       MONTE CARLO PARAMETER DEFINITIONS

 norm_1_random                   
     l_param         =  4.9135E-08  l_param         =  4.9135E-08
 norm_2_random                   
     wn_param        =  8.9233E-08  wn_param        =  8.9233E-08

 id_nmos= 1.2301e-04
 id_pmos=-1.6697e-04
 ion_nmos= 1.3667e+03
 ion_pmos= 9.2759e+02

   *** monte carlo  index =          110 ***

       MONTE CARLO PARAMETER DEFINITIONS

 norm_1_random                   
     l_param         =  5.0155E-08  l_param         =  5.0155E-08
 norm_2_random                   
     wn_param        =  8.9348E-08  wn_param        =  8.9348E-08

 id_nmos= 1.2018e-04
 id_pmos=-1.6220e-04
 ion_nmos= 1.3353e+03
 ion_pmos= 9.0110e+02

   *** monte carlo  index =          111 ***

       MONTE CARLO PARAMETER DEFINITIONS

 norm_1_random                   
     l_param         =  4.9757E-08  l_param         =  4.9757E-08
 norm_2_random                   
     wn_param        =  8.8886E-08  wn_param        =  8.8886E-08

 id_nmos= 1.2064e-04
 id_pmos=-1.6321e-04
 ion_nmos= 1.3404e+03
 ion_pmos= 9.0669e+02

   *** monte carlo  index =          112 ***

       MONTE CARLO PARAMETER DEFINITIONS

 norm_1_random                   
     l_param         =  5.0166E-08  l_param         =  5.0166E-08
 norm_2_random                   
     wn_param        =  8.9604E-08  wn_param        =  8.9604E-08

 id_nmos= 1.2052e-04
 id_pmos=-1.6264e-04
 ion_nmos= 1.3391e+03
 ion_pmos= 9.0353e+02

   *** monte carlo  index =          113 ***

       MONTE CARLO PARAMETER DEFINITIONS

 norm_1_random                   
     l_param         =  5.0307E-08  l_param         =  5.0307E-08
 norm_2_random                   
     wn_param        =  8.9753E-08  wn_param        =  8.9753E-08

 id_nmos= 1.2034e-04
 id_pmos=-1.6226e-04
 ion_nmos= 1.3371e+03
 ion_pmos= 9.0144e+02

   *** monte carlo  index =          114 ***

       MONTE CARLO PARAMETER DEFINITIONS

 norm_1_random                   
     l_param         =  4.9909E-08  l_param         =  4.9909E-08
 norm_2_random                   
     wn_param        =  9.0703E-08  wn_param        =  9.0703E-08

 id_nmos= 1.2287e-04
 id_pmos=-1.6595e-04
 ion_nmos= 1.3651e+03
 ion_pmos= 9.2195e+02

   *** monte carlo  index =          115 ***

       MONTE CARLO PARAMETER DEFINITIONS

 norm_1_random                   
     l_param         =  5.0079E-08  l_param         =  5.0079E-08
 norm_2_random                   
     wn_param        =  8.8800E-08  wn_param        =  8.8800E-08

 id_nmos= 1.1959e-04
 id_pmos=-1.6151e-04
 ion_nmos= 1.3287e+03
 ion_pmos= 8.9728e+02

   *** monte carlo  index =          116 ***

       MONTE CARLO PARAMETER DEFINITIONS

 norm_1_random                   
     l_param         =  4.9943E-08  l_param         =  4.9943E-08
 norm_2_random                   
     wn_param        =  9.0478E-08  wn_param        =  9.0478E-08

 id_nmos= 1.2244e-04
 id_pmos=-1.6536e-04
 ion_nmos= 1.3604e+03
 ion_pmos= 9.1865e+02

   *** monte carlo  index =          117 ***

       MONTE CARLO PARAMETER DEFINITIONS

 norm_1_random                   
     l_param         =  4.9734E-08  l_param         =  4.9734E-08
 norm_2_random                   
     wn_param        =  8.9940E-08  wn_param        =  8.9940E-08

 id_nmos= 1.2226e-04
 id_pmos=-1.6534e-04
 ion_nmos= 1.3584e+03
 ion_pmos= 9.1857e+02

   *** monte carlo  index =          118 ***

       MONTE CARLO PARAMETER DEFINITIONS

 norm_1_random                   
     l_param         =  4.9877E-08  l_param         =  4.9877E-08
 norm_2_random                   
     wn_param        =  8.9744E-08  wn_param        =  8.9744E-08

 id_nmos= 1.2155e-04
 id_pmos=-1.6427e-04
 ion_nmos= 1.3505e+03
 ion_pmos= 9.1263e+02

   *** monte carlo  index =          119 ***

       MONTE CARLO PARAMETER DEFINITIONS

 norm_1_random                   
     l_param         =  4.9585E-08  l_param         =  4.9585E-08
 norm_2_random                   
     wn_param        =  8.9737E-08  wn_param        =  8.9737E-08

 id_nmos= 1.2240e-04
 id_pmos=-1.6568e-04
 ion_nmos= 1.3600e+03
 ion_pmos= 9.2046e+02

   *** monte carlo  index =          120 ***

       MONTE CARLO PARAMETER DEFINITIONS

 norm_1_random                   
     l_param         =  5.0541E-08  l_param         =  5.0541E-08
 norm_2_random                   
     wn_param        =  9.0526E-08  wn_param        =  9.0526E-08

 id_nmos= 1.2081e-04
 id_pmos=-1.6263e-04
 ion_nmos= 1.3423e+03
 ion_pmos= 9.0352e+02

   *** monte carlo  index =          121 ***

       MONTE CARLO PARAMETER DEFINITIONS

 norm_1_random                   
     l_param         =  5.0144E-08  l_param         =  5.0144E-08
 norm_2_random                   
     wn_param        =  8.8907E-08  wn_param        =  8.8907E-08

 id_nmos= 1.1957e-04
 id_pmos=-1.6141e-04
 ion_nmos= 1.3285e+03
 ion_pmos= 8.9674e+02

   *** monte carlo  index =          122 ***

       MONTE CARLO PARAMETER DEFINITIONS

 norm_1_random                   
     l_param         =  4.9358E-08  l_param         =  4.9358E-08
 norm_2_random                   
     wn_param        =  9.0965E-08  wn_param        =  9.0965E-08

 id_nmos= 1.2491e-04
 id_pmos=-1.6920e-04
 ion_nmos= 1.3878e+03
 ion_pmos= 9.4001e+02

   *** monte carlo  index =          123 ***

       MONTE CARLO PARAMETER DEFINITIONS

 norm_1_random                   
     l_param         =  5.0067E-08  l_param         =  5.0067E-08
 norm_2_random                   
     wn_param        =  9.0846E-08  wn_param        =  9.0846E-08

 id_nmos= 1.2262e-04
 id_pmos=-1.6546e-04
 ion_nmos= 1.3624e+03
 ion_pmos= 9.1924e+02

   *** monte carlo  index =          124 ***

       MONTE CARLO PARAMETER DEFINITIONS

 norm_1_random                   
     l_param         =  5.0523E-08  l_param         =  5.0523E-08
 norm_2_random                   
     wn_param        =  8.8153E-08  wn_param        =  8.8153E-08

 id_nmos= 1.1743e-04
 id_pmos=-1.5826e-04
 ion_nmos= 1.3047e+03
 ion_pmos= 8.7920e+02

   *** monte carlo  index =          125 ***

       MONTE CARLO PARAMETER DEFINITIONS

 norm_1_random                   
     l_param         =  4.9928E-08  l_param         =  4.9928E-08
 norm_2_random                   
     wn_param        =  9.0911E-08  wn_param        =  9.0911E-08

 id_nmos= 1.2312e-04
 id_pmos=-1.6626e-04
 ion_nmos= 1.3679e+03
 ion_pmos= 9.2365e+02

   *** monte carlo  index =          126 ***

       MONTE CARLO PARAMETER DEFINITIONS

 norm_1_random                   
     l_param         =  4.9911E-08  l_param         =  4.9911E-08
 norm_2_random                   
     wn_param        =  8.9472E-08  wn_param        =  8.9472E-08

 id_nmos= 1.2105e-04
 id_pmos=-1.6359e-04
 ion_nmos= 1.3450e+03
 ion_pmos= 9.0883e+02

   *** monte carlo  index =          127 ***

       MONTE CARLO PARAMETER DEFINITIONS

 norm_1_random                   
     l_param         =  5.0133E-08  l_param         =  5.0133E-08
 norm_2_random                   
     wn_param        =  8.9577E-08  wn_param        =  8.9577E-08

 id_nmos= 1.2057e-04
 id_pmos=-1.6273e-04
 ion_nmos= 1.3397e+03
 ion_pmos= 9.0408e+02

   *** monte carlo  index =          128 ***

       MONTE CARLO PARAMETER DEFINITIONS

 norm_1_random                   
     l_param         =  5.0409E-08  l_param         =  5.0409E-08
 norm_2_random                   
     wn_param        =  9.0169E-08  wn_param        =  9.0169E-08

 id_nmos= 1.2066e-04
 id_pmos=-1.6257e-04
 ion_nmos= 1.3406e+03
 ion_pmos= 9.0317e+02

   *** monte carlo  index =          129 ***

       MONTE CARLO PARAMETER DEFINITIONS

 norm_1_random                   
     l_param         =  5.0338E-08  l_param         =  5.0338E-08
 norm_2_random                   
     wn_param        =  8.8606E-08  wn_param        =  8.8606E-08

 id_nmos= 1.1859e-04
 id_pmos=-1.5995e-04
 ion_nmos= 1.3176e+03
 ion_pmos= 8.8860e+02

   *** monte carlo  index =          130 ***

       MONTE CARLO PARAMETER DEFINITIONS

 norm_1_random                   
     l_param         =  5.0025E-08  l_param         =  5.0025E-08
 norm_2_random                   
     wn_param        =  8.9566E-08  wn_param        =  8.9566E-08

 id_nmos= 1.2086e-04
 id_pmos=-1.6322e-04
 ion_nmos= 1.3429e+03
 ion_pmos= 9.0680e+02

   *** monte carlo  index =          131 ***

       MONTE CARLO PARAMETER DEFINITIONS

 norm_1_random                   
     l_param         =  4.9653E-08  l_param         =  4.9653E-08
 norm_2_random                   
     wn_param        =  8.8231E-08  wn_param        =  8.8231E-08

 id_nmos= 1.1998e-04
 id_pmos=-1.6245e-04
 ion_nmos= 1.3330e+03
 ion_pmos= 9.0248e+02

   *** monte carlo  index =          132 ***

       MONTE CARLO PARAMETER DEFINITIONS

 norm_1_random                   
     l_param         =  5.0910E-08  l_param         =  5.0910E-08
 norm_2_random                   
     wn_param        =  8.9343E-08  wn_param        =  8.9343E-08

 id_nmos= 1.1811e-04
 id_pmos=-1.5877e-04
 ion_nmos= 1.3123e+03
 ion_pmos= 8.8203e+02

   *** monte carlo  index =          133 ***

       MONTE CARLO PARAMETER DEFINITIONS

 norm_1_random                   
     l_param         =  4.9359E-08  l_param         =  4.9359E-08
 norm_2_random                   
     wn_param        =  8.9539E-08  wn_param        =  8.9539E-08

 id_nmos= 1.2278e-04
 id_pmos=-1.6643e-04
 ion_nmos= 1.3642e+03
 ion_pmos= 9.2459e+02

   *** monte carlo  index =          134 ***

       MONTE CARLO PARAMETER DEFINITIONS

 norm_1_random                   
     l_param         =  5.0094E-08  l_param         =  5.0094E-08
 norm_2_random                   
     wn_param        =  9.0119E-08  wn_param        =  9.0119E-08

 id_nmos= 1.2148e-04
 id_pmos=-1.6395e-04
 ion_nmos= 1.3497e+03
 ion_pmos= 9.1085e+02

   *** monte carlo  index =          135 ***

       MONTE CARLO PARAMETER DEFINITIONS

 norm_1_random                   
     l_param         =  5.0135E-08  l_param         =  5.0135E-08
 norm_2_random                   
     wn_param        =  9.0981E-08  wn_param        =  9.0981E-08

 id_nmos= 1.2262e-04
 id_pmos=-1.6540e-04
 ion_nmos= 1.3624e+03
 ion_pmos= 9.1887e+02

   *** monte carlo  index =          136 ***

       MONTE CARLO PARAMETER DEFINITIONS

 norm_1_random                   
     l_param         =  5.0447E-08  l_param         =  5.0447E-08
 norm_2_random                   
     wn_param        =  8.9733E-08  wn_param        =  8.9733E-08

 id_nmos= 1.1992e-04
 id_pmos=-1.6158e-04
 ion_nmos= 1.3324e+03
 ion_pmos= 8.9764e+02

   *** monte carlo  index =          137 ***

       MONTE CARLO PARAMETER DEFINITIONS

 norm_1_random                   
     l_param         =  5.0551E-08  l_param         =  5.0551E-08
 norm_2_random                   
     wn_param        =  8.9344E-08  wn_param        =  8.9344E-08

 id_nmos= 1.1907e-04
 id_pmos=-1.6037e-04
 ion_nmos= 1.3230e+03
 ion_pmos= 8.9092e+02

   *** monte carlo  index =          138 ***

       MONTE CARLO PARAMETER DEFINITIONS

 norm_1_random                   
     l_param         =  5.0217E-08  l_param         =  5.0217E-08
 norm_2_random                   
     wn_param        =  8.9644E-08  wn_param        =  8.9644E-08

 id_nmos= 1.2044e-04
 id_pmos=-1.6247e-04
 ion_nmos= 1.3381e+03
 ion_pmos= 9.0262e+02

   *** monte carlo  index =          139 ***

       MONTE CARLO PARAMETER DEFINITIONS

 norm_1_random                   
     l_param         =  5.0531E-08  l_param         =  5.0531E-08
 norm_2_random                   
     wn_param        =  9.0710E-08  wn_param        =  9.0710E-08

 id_nmos= 1.2110e-04
 id_pmos=-1.6303e-04
 ion_nmos= 1.3456e+03
 ion_pmos= 9.0570e+02

   *** monte carlo  index =          140 ***

       MONTE CARLO PARAMETER DEFINITIONS

 norm_1_random                   
     l_param         =  5.0267E-08  l_param         =  5.0267E-08
 norm_2_random                   
     wn_param        =  8.9328E-08  wn_param        =  8.9328E-08

 id_nmos= 1.1984e-04
 id_pmos=-1.6164e-04
 ion_nmos= 1.3315e+03
 ion_pmos= 8.9800e+02

   *** monte carlo  index =          141 ***

       MONTE CARLO PARAMETER DEFINITIONS

 norm_1_random                   
     l_param         =  5.0829E-08  l_param         =  5.0829E-08
 norm_2_random                   
     wn_param        =  9.1288E-08  wn_param        =  9.1288E-08

 id_nmos= 1.2112e-04
 id_pmos=-1.6275e-04
 ion_nmos= 1.3457e+03
 ion_pmos= 9.0414e+02

   *** monte carlo  index =          142 ***

       MONTE CARLO PARAMETER DEFINITIONS

 norm_1_random                   
     l_param         =  4.9242E-08  l_param         =  4.9242E-08
 norm_2_random                   
     wn_param        =  9.1449E-08  wn_param        =  9.1449E-08

 id_nmos= 1.2598e-04
 id_pmos=-1.7074e-04
 ion_nmos= 1.3998e+03
 ion_pmos= 9.4855e+02

   *** monte carlo  index =          143 ***

       MONTE CARLO PARAMETER DEFINITIONS

 norm_1_random                   
     l_param         =  5.0445E-08  l_param         =  5.0445E-08
 norm_2_random                   
     wn_param        =  8.9972E-08  wn_param        =  8.9972E-08

 id_nmos= 1.2027e-04
 id_pmos=-1.6203e-04
 ion_nmos= 1.3363e+03
 ion_pmos= 9.0017e+02

   *** monte carlo  index =          144 ***

       MONTE CARLO PARAMETER DEFINITIONS

 norm_1_random                   
     l_param         =  4.9741E-08  l_param         =  4.9741E-08
 norm_2_random                   
     wn_param        =  8.9588E-08  wn_param        =  8.9588E-08

 id_nmos= 1.2172e-04
 id_pmos=-1.6464e-04
 ion_nmos= 1.3524e+03
 ion_pmos= 9.1464e+02

   *** monte carlo  index =          145 ***

       MONTE CARLO PARAMETER DEFINITIONS

 norm_1_random                   
     l_param         =  5.0132E-08  l_param         =  5.0132E-08
 norm_2_random                   
     wn_param        =  9.0423E-08  wn_param        =  9.0423E-08

 id_nmos= 1.2181e-04
 id_pmos=-1.6435e-04
 ion_nmos= 1.3534e+03
 ion_pmos= 9.1306e+02

   *** monte carlo  index =          146 ***

       MONTE CARLO PARAMETER DEFINITIONS

 norm_1_random                   
     l_param         =  4.9998E-08  l_param         =  4.9998E-08
 norm_2_random                   
     wn_param        =  9.0108E-08  wn_param        =  9.0108E-08

 id_nmos= 1.2174e-04
 id_pmos=-1.6439e-04
 ion_nmos= 1.3526e+03
 ion_pmos= 9.1327e+02

   *** monte carlo  index =          147 ***

       MONTE CARLO PARAMETER DEFINITIONS

 norm_1_random                   
     l_param         =  4.9999E-08  l_param         =  4.9999E-08
 norm_2_random                   
     wn_param        =  8.9316E-08  wn_param        =  8.9316E-08

 id_nmos= 1.2057e-04
 id_pmos=-1.6287e-04
 ion_nmos= 1.3397e+03
 ion_pmos= 9.0485e+02

   *** monte carlo  index =          148 ***

       MONTE CARLO PARAMETER DEFINITIONS

 norm_1_random                   
     l_param         =  5.0391E-08  l_param         =  5.0391E-08
 norm_2_random                   
     wn_param        =  9.0782E-08  wn_param        =  9.0782E-08

 id_nmos= 1.2160e-04
 id_pmos=-1.6381e-04
 ion_nmos= 1.3511e+03
 ion_pmos= 9.1005e+02

   *** monte carlo  index =          149 ***

       MONTE CARLO PARAMETER DEFINITIONS

 norm_1_random                   
     l_param         =  4.9986E-08  l_param         =  4.9986E-08
 norm_2_random                   
     wn_param        =  8.9749E-08  wn_param        =  8.9749E-08

 id_nmos= 1.2125e-04
 id_pmos=-1.6376e-04
 ion_nmos= 1.3471e+03
 ion_pmos= 9.0978e+02

   *** monte carlo  index =          150 ***

       MONTE CARLO PARAMETER DEFINITIONS

 norm_1_random                   
     l_param         =  5.0014E-08  l_param         =  5.0014E-08
 norm_2_random                   
     wn_param        =  8.9196E-08  wn_param        =  8.9196E-08

 id_nmos= 1.2035e-04
 id_pmos=-1.6257e-04
 ion_nmos= 1.3372e+03
 ion_pmos= 9.0317e+02

   *** monte carlo  index =          151 ***

       MONTE CARLO PARAMETER DEFINITIONS

 norm_1_random                   
     l_param         =  4.9564E-08  l_param         =  4.9564E-08
 norm_2_random                   
     wn_param        =  8.9233E-08  wn_param        =  8.9233E-08

 id_nmos= 1.2172e-04
 id_pmos=-1.6481e-04
 ion_nmos= 1.3524e+03
 ion_pmos= 9.1563e+02

   *** monte carlo  index =          152 ***

       MONTE CARLO PARAMETER DEFINITIONS

 norm_1_random                   
     l_param         =  4.9754E-08  l_param         =  4.9754E-08
 norm_2_random                   
     wn_param        =  8.9870E-08  wn_param        =  8.9870E-08

 id_nmos= 1.2210e-04
 id_pmos=-1.6511e-04
 ion_nmos= 1.3566e+03
 ion_pmos= 9.1727e+02

   *** monte carlo  index =          153 ***

       MONTE CARLO PARAMETER DEFINITIONS

 norm_1_random                   
     l_param         =  5.0513E-08  l_param         =  5.0513E-08
 norm_2_random                   
     wn_param        =  9.1261E-08  wn_param        =  9.1261E-08

 id_nmos= 1.2195e-04
 id_pmos=-1.6415e-04
 ion_nmos= 1.3550e+03
 ion_pmos= 9.1191e+02

   *** monte carlo  index =          154 ***

       MONTE CARLO PARAMETER DEFINITIONS

 norm_1_random                   
     l_param         =  5.0607E-08  l_param         =  5.0607E-08
 norm_2_random                   
     wn_param        =  9.1371E-08  wn_param        =  9.1371E-08

 id_nmos= 1.2185e-04
 id_pmos=-1.6391e-04
 ion_nmos= 1.3538e+03
 ion_pmos= 9.1063e+02

   *** monte carlo  index =          155 ***

       MONTE CARLO PARAMETER DEFINITIONS

 norm_1_random                   
     l_param         =  5.0515E-08  l_param         =  5.0515E-08
 norm_2_random                   
     wn_param        =  8.9834E-08  wn_param        =  8.9834E-08

 id_nmos= 1.1988e-04
 id_pmos=-1.6145e-04
 ion_nmos= 1.3320e+03
 ion_pmos= 8.9696e+02

   *** monte carlo  index =          156 ***

       MONTE CARLO PARAMETER DEFINITIONS

 norm_1_random                   
     l_param         =  5.0289E-08  l_param         =  5.0289E-08
 norm_2_random                   
     wn_param        =  9.0114E-08  wn_param        =  9.0114E-08

 id_nmos= 1.2091e-04
 id_pmos=-1.6302e-04
 ion_nmos= 1.3435e+03
 ion_pmos= 9.0567e+02

   *** monte carlo  index =          157 ***

       MONTE CARLO PARAMETER DEFINITIONS

 norm_1_random                   
     l_param         =  5.0152E-08  l_param         =  5.0152E-08
 norm_2_random                   
     wn_param        =  9.0282E-08  wn_param        =  9.0282E-08

 id_nmos= 1.2155e-04
 id_pmos=-1.6399e-04
 ion_nmos= 1.3505e+03
 ion_pmos= 9.1103e+02

   *** monte carlo  index =          158 ***

       MONTE CARLO PARAMETER DEFINITIONS

 norm_1_random                   
     l_param         =  4.9506E-08  l_param         =  4.9506E-08
 norm_2_random                   
     wn_param        =  9.1755E-08  wn_param        =  9.1755E-08

 id_nmos= 1.2562e-04
 id_pmos=-1.6998e-04
 ion_nmos= 1.3958e+03
 ion_pmos= 9.4433e+02

   *** monte carlo  index =          159 ***

       MONTE CARLO PARAMETER DEFINITIONS

 norm_1_random                   
     l_param         =  5.0610E-08  l_param         =  5.0610E-08
 norm_2_random                   
     wn_param        =  9.0018E-08  wn_param        =  9.0018E-08

 id_nmos= 1.1989e-04
 id_pmos=-1.6136e-04
 ion_nmos= 1.3320e+03
 ion_pmos= 8.9646e+02

   *** monte carlo  index =          160 ***

       MONTE CARLO PARAMETER DEFINITIONS

 norm_1_random                   
     l_param         =  4.9763E-08  l_param         =  4.9763E-08
 norm_2_random                   
     wn_param        =  9.0874E-08  wn_param        =  9.0874E-08

 id_nmos= 1.2355e-04
 id_pmos=-1.6700e-04
 ion_nmos= 1.3727e+03
 ion_pmos= 9.2775e+02

   *** monte carlo  index =          161 ***

       MONTE CARLO PARAMETER DEFINITIONS

 norm_1_random                   
     l_param         =  4.9963E-08  l_param         =  4.9963E-08
 norm_2_random                   
     wn_param        =  8.9514E-08  wn_param        =  8.9514E-08

 id_nmos= 1.2097e-04
 id_pmos=-1.6342e-04
 ion_nmos= 1.3440e+03
 ion_pmos= 9.0789e+02

   *** monte carlo  index =          162 ***

       MONTE CARLO PARAMETER DEFINITIONS

 norm_1_random                   
     l_param         =  4.9517E-08  l_param         =  4.9517E-08
 norm_2_random                   
     wn_param        =  8.9062E-08  wn_param        =  8.9062E-08

 id_nmos= 1.2160e-04
 id_pmos=-1.6471e-04
 ion_nmos= 1.3511e+03
 ion_pmos= 9.1507e+02

   *** monte carlo  index =          163 ***

       MONTE CARLO PARAMETER DEFINITIONS

 norm_1_random                   
     l_param         =  4.9700E-08  l_param         =  4.9700E-08
 norm_2_random                   
     wn_param        =  9.0907E-08  wn_param        =  9.0907E-08

 id_nmos= 1.2378e-04
 id_pmos=-1.6737e-04
 ion_nmos= 1.3753e+03
 ion_pmos= 9.2983e+02

   *** monte carlo  index =          164 ***

       MONTE CARLO PARAMETER DEFINITIONS

 norm_1_random                   
     l_param         =  5.0105E-08  l_param         =  5.0105E-08
 norm_2_random                   
     wn_param        =  8.8236E-08  wn_param        =  8.8236E-08

 id_nmos= 1.1869e-04
 id_pmos=-1.6032e-04
 ion_nmos= 1.3188e+03
 ion_pmos= 8.9065e+02

   *** monte carlo  index =          165 ***

       MONTE CARLO PARAMETER DEFINITIONS

 norm_1_random                   
     l_param         =  5.0032E-08  l_param         =  5.0032E-08
 norm_2_random                   
     wn_param        =  8.9196E-08  wn_param        =  8.9196E-08

 id_nmos= 1.2030e-04
 id_pmos=-1.6249e-04
 ion_nmos= 1.3367e+03
 ion_pmos= 9.0271e+02

   *** monte carlo  index =          166 ***

       MONTE CARLO PARAMETER DEFINITIONS

 norm_1_random                   
     l_param         =  5.0455E-08  l_param         =  5.0455E-08
 norm_2_random                   
     wn_param        =  9.2355E-08  wn_param        =  9.2355E-08

 id_nmos= 1.2370e-04
 id_pmos=-1.6647e-04
 ion_nmos= 1.3744e+03
 ion_pmos= 9.2483e+02

   *** monte carlo  index =          167 ***

       MONTE CARLO PARAMETER DEFINITIONS

 norm_1_random                   
     l_param         =  5.0433E-08  l_param         =  5.0433E-08
 norm_2_random                   
     wn_param        =  9.0893E-08  wn_param        =  9.0893E-08

 id_nmos= 1.2164e-04
 id_pmos=-1.6382e-04
 ion_nmos= 1.3515e+03
 ion_pmos= 9.1013e+02

   *** monte carlo  index =          168 ***

       MONTE CARLO PARAMETER DEFINITIONS

 norm_1_random                   
     l_param         =  4.9610E-08  l_param         =  4.9610E-08
 norm_2_random                   
     wn_param        =  9.0076E-08  wn_param        =  9.0076E-08

 id_nmos= 1.2283e-04
 id_pmos=-1.6621e-04
 ion_nmos= 1.3647e+03
 ion_pmos= 9.2341e+02

   *** monte carlo  index =          169 ***

       MONTE CARLO PARAMETER DEFINITIONS

 norm_1_random                   
     l_param         =  5.0160E-08  l_param         =  5.0160E-08
 norm_2_random                   
     wn_param        =  9.0947E-08  wn_param        =  9.0947E-08

 id_nmos= 1.2250e-04
 id_pmos=-1.6521e-04
 ion_nmos= 1.3610e+03
 ion_pmos= 9.1785e+02

   *** monte carlo  index =          170 ***

       MONTE CARLO PARAMETER DEFINITIONS

 norm_1_random                   
     l_param         =  4.9890E-08  l_param         =  4.9890E-08
 norm_2_random                   
     wn_param        =  9.0000E-08  wn_param        =  9.0000E-08

 id_nmos= 1.2189e-04
 id_pmos=-1.6470e-04
 ion_nmos= 1.3543e+03
 ion_pmos= 9.1500e+02

   *** monte carlo  index =          171 ***

       MONTE CARLO PARAMETER DEFINITIONS

 norm_1_random                   
     l_param         =  5.0169E-08  l_param         =  5.0169E-08
 norm_2_random                   
     wn_param        =  9.0480E-08  wn_param        =  9.0480E-08

 id_nmos= 1.2179e-04
 id_pmos=-1.6428e-04
 ion_nmos= 1.3532e+03
 ion_pmos= 9.1267e+02

   *** monte carlo  index =          172 ***

       MONTE CARLO PARAMETER DEFINITIONS

 norm_1_random                   
     l_param         =  5.0440E-08  l_param         =  5.0440E-08
 norm_2_random                   
     wn_param        =  8.9727E-08  wn_param        =  8.9727E-08

 id_nmos= 1.1993e-04
 id_pmos=-1.6159e-04
 ion_nmos= 1.3325e+03
 ion_pmos= 8.9774e+02

   *** monte carlo  index =          173 ***

       MONTE CARLO PARAMETER DEFINITIONS

 norm_1_random                   
     l_param         =  5.0312E-08  l_param         =  5.0312E-08
 norm_2_random                   
     wn_param        =  8.8934E-08  wn_param        =  8.8934E-08

 id_nmos= 1.1914e-04
 id_pmos=-1.6069e-04
 ion_nmos= 1.3237e+03
 ion_pmos= 8.9270e+02

   *** monte carlo  index =          174 ***

       MONTE CARLO PARAMETER DEFINITIONS

 norm_1_random                   
     l_param         =  5.0111E-08  l_param         =  5.0111E-08
 norm_2_random                   
     wn_param        =  8.8185E-08  wn_param        =  8.8185E-08

 id_nmos= 1.1860e-04
 id_pmos=-1.6019e-04
 ion_nmos= 1.3178e+03
 ion_pmos= 8.8995e+02

   *** monte carlo  index =          175 ***

       MONTE CARLO PARAMETER DEFINITIONS

 norm_1_random                   
     l_param         =  4.9835E-08  l_param         =  4.9835E-08
 norm_2_random                   
     wn_param        =  9.0013E-08  wn_param        =  9.0013E-08

 id_nmos= 1.2207e-04
 id_pmos=-1.6499e-04
 ion_nmos= 1.3563e+03
 ion_pmos= 9.1663e+02

   *** monte carlo  index =          176 ***

       MONTE CARLO PARAMETER DEFINITIONS

 norm_1_random                   
     l_param         =  4.9768E-08  l_param         =  4.9768E-08
 norm_2_random                   
     wn_param        =  8.9923E-08  wn_param        =  8.9923E-08

 id_nmos= 1.2213e-04
 id_pmos=-1.6514e-04
 ion_nmos= 1.3570e+03
 ion_pmos= 9.1746e+02

   *** monte carlo  index =          177 ***

       MONTE CARLO PARAMETER DEFINITIONS

 norm_1_random                   
     l_param         =  4.9367E-08  l_param         =  4.9367E-08
 norm_2_random                   
     wn_param        =  9.2383E-08  wn_param        =  9.2383E-08

 id_nmos= 1.2698e-04
 id_pmos=-1.7191e-04
 ion_nmos= 1.4109e+03
 ion_pmos= 9.5505e+02

   *** monte carlo  index =          178 ***

       MONTE CARLO PARAMETER DEFINITIONS

 norm_1_random                   
     l_param         =  5.0322E-08  l_param         =  5.0322E-08
 norm_2_random                   
     wn_param        =  8.8901E-08  wn_param        =  8.8901E-08

 id_nmos= 1.1906e-04
 id_pmos=-1.6058e-04
 ion_nmos= 1.3229e+03
 ion_pmos= 8.9210e+02

   *** monte carlo  index =          179 ***

       MONTE CARLO PARAMETER DEFINITIONS

 norm_1_random                   
     l_param         =  5.0099E-08  l_param         =  5.0099E-08
 norm_2_random                   
     wn_param        =  9.0107E-08  wn_param        =  9.0107E-08

 id_nmos= 1.2145e-04
 id_pmos=-1.6391e-04
 ion_nmos= 1.3493e+03
 ion_pmos= 9.1058e+02

   *** monte carlo  index =          180 ***

       MONTE CARLO PARAMETER DEFINITIONS

 norm_1_random                   
     l_param         =  4.9550E-08  l_param         =  4.9550E-08
 norm_2_random                   
     wn_param        =  8.9922E-08  wn_param        =  8.9922E-08

 id_nmos= 1.2278e-04
 id_pmos=-1.6621e-04
 ion_nmos= 1.3641e+03
 ion_pmos= 9.2341e+02

   *** monte carlo  index =          181 ***

       MONTE CARLO PARAMETER DEFINITIONS

 norm_1_random                   
     l_param         =  5.0179E-08  l_param         =  5.0179E-08
 norm_2_random                   
     wn_param        =  9.1281E-08  wn_param        =  9.1281E-08

 id_nmos= 1.2293e-04
 id_pmos=-1.6575e-04
 ion_nmos= 1.3658e+03
 ion_pmos= 9.2085e+02

   *** monte carlo  index =          182 ***

       MONTE CARLO PARAMETER DEFINITIONS

 norm_1_random                   
     l_param         =  4.9866E-08  l_param         =  4.9866E-08
 norm_2_random                   
[...]

       MONTE CARLO PARAMETER DEFINITIONS

 norm_1_random                   
     l_param         =  4.9851E-08  l_param         =  4.9851E-08
 norm_2_random                   
     wn_param        =  9.0383E-08  wn_param        =  9.0383E-08

 id_nmos= 1.2257e-04
 id_pmos=-1.6562e-04
 ion_nmos= 1.3618e+03
 ion_pmos= 9.2011e+02

   *** monte carlo  index =         2456 ***

       MONTE CARLO PARAMETER DEFINITIONS

 norm_1_random                   
     l_param         =  4.9924E-08  l_param         =  4.9924E-08
 norm_2_random                   
     wn_param        =  8.9898E-08  wn_param        =  8.9898E-08

 id_nmos= 1.2164e-04
 id_pmos=-1.6434e-04
 ion_nmos= 1.3515e+03
 ion_pmos= 9.1300e+02

   *** monte carlo  index =         2457 ***

       MONTE CARLO PARAMETER DEFINITIONS

 norm_1_random                   
     l_param         =  5.0175E-08  l_param         =  5.0175E-08
 norm_2_random                   
     wn_param        =  8.9865E-08  wn_param        =  8.9865E-08

 id_nmos= 1.2088e-04
 id_pmos=-1.6309e-04
 ion_nmos= 1.3430e+03
 ion_pmos= 9.0605e+02

   *** monte carlo  index =         2458 ***

       MONTE CARLO PARAMETER DEFINITIONS

 norm_1_random                   
     l_param         =  4.9706E-08  l_param         =  4.9706E-08
 norm_2_random                   
     wn_param        =  9.1054E-08  wn_param        =  9.1054E-08

 id_nmos= 1.2398e-04
 id_pmos=-1.6762e-04
 ion_nmos= 1.3775e+03
 ion_pmos= 9.3123e+02

   *** monte carlo  index =         2459 ***

       MONTE CARLO PARAMETER DEFINITIONS

 norm_1_random                   
     l_param         =  5.0539E-08  l_param         =  5.0539E-08
 norm_2_random                   
     wn_param        =  8.9257E-08  wn_param        =  8.9257E-08

 id_nmos= 1.1898e-04
 id_pmos=-1.6026e-04
 ion_nmos= 1.3219e+03
 ion_pmos= 8.9031e+02

   *** monte carlo  index =         2460 ***

       MONTE CARLO PARAMETER DEFINITIONS

 norm_1_random                   
     l_param         =  5.0287E-08  l_param         =  5.0287E-08
 norm_2_random                   
     wn_param        =  9.0072E-08  wn_param        =  9.0072E-08

 id_nmos= 1.2086e-04
 id_pmos=-1.6295e-04
 ion_nmos= 1.3428e+03
 ion_pmos= 9.0529e+02

   *** monte carlo  index =         2461 ***

       MONTE CARLO PARAMETER DEFINITIONS

 norm_1_random                   
     l_param         =  5.0252E-08  l_param         =  5.0252E-08
 norm_2_random                   
     wn_param        =  9.0363E-08  wn_param        =  9.0363E-08

 id_nmos= 1.2138e-04
 id_pmos=-1.6367e-04
 ion_nmos= 1.3486e+03
 ion_pmos= 9.0925e+02

   *** monte carlo  index =         2462 ***

       MONTE CARLO PARAMETER DEFINITIONS

 norm_1_random                   
     l_param         =  4.9485E-08  l_param         =  4.9485E-08
 norm_2_random                   
     wn_param        =  9.0253E-08  wn_param        =  9.0253E-08

 id_nmos= 1.2346e-04
 id_pmos=-1.6718e-04
 ion_nmos= 1.3718e+03
 ion_pmos= 9.2876e+02

   *** monte carlo  index =         2463 ***

       MONTE CARLO PARAMETER DEFINITIONS

 norm_1_random                   
     l_param         =  4.9767E-08  l_param         =  4.9767E-08
 norm_2_random                   
     wn_param        =  8.9366E-08  wn_param        =  8.9366E-08

 id_nmos= 1.2132e-04
 id_pmos=-1.6408e-04
 ion_nmos= 1.3479e+03
 ion_pmos= 9.1155e+02

   *** monte carlo  index =         2464 ***

       MONTE CARLO PARAMETER DEFINITIONS

 norm_1_random                   
     l_param         =  4.9802E-08  l_param         =  4.9802E-08
 norm_2_random                   
     wn_param        =  8.8505E-08  wn_param        =  8.8505E-08

 id_nmos= 1.1995e-04
 id_pmos=-1.6226e-04
 ion_nmos= 1.3327e+03
 ion_pmos= 9.0142e+02

   *** monte carlo  index =         2465 ***

       MONTE CARLO PARAMETER DEFINITIONS

 norm_1_random                   
     l_param         =  5.0241E-08  l_param         =  5.0241E-08
 norm_2_random                   
     wn_param        =  8.9746E-08  wn_param        =  8.9746E-08

 id_nmos= 1.2052e-04
 id_pmos=-1.6255e-04
 ion_nmos= 1.3390e+03
 ion_pmos= 9.0307e+02

   *** monte carlo  index =         2466 ***

       MONTE CARLO PARAMETER DEFINITIONS

 norm_1_random                   
     l_param         =  4.9616E-08  l_param         =  4.9616E-08
 norm_2_random                   
     wn_param        =  8.9524E-08  wn_param        =  8.9524E-08

 id_nmos= 1.2199e-04
 id_pmos=-1.6512e-04
 ion_nmos= 1.3554e+03
 ion_pmos= 9.1734e+02

   *** monte carlo  index =         2467 ***

       MONTE CARLO PARAMETER DEFINITIONS

 norm_1_random                   
     l_param         =  4.9903E-08  l_param         =  4.9903E-08
 norm_2_random                   
     wn_param        =  8.9465E-08  wn_param        =  8.9465E-08

 id_nmos= 1.2107e-04
 id_pmos=-1.6362e-04
 ion_nmos= 1.3452e+03
 ion_pmos= 9.0898e+02

   *** monte carlo  index =         2468 ***

       MONTE CARLO PARAMETER DEFINITIONS

 norm_1_random                   
     l_param         =  4.9587E-08  l_param         =  4.9587E-08
 norm_2_random                   
     wn_param        =  8.9256E-08  wn_param        =  8.9256E-08

 id_nmos= 1.2168e-04
 id_pmos=-1.6474e-04
 ion_nmos= 1.3520e+03
 ion_pmos= 9.1523e+02

   *** monte carlo  index =         2469 ***

       MONTE CARLO PARAMETER DEFINITIONS

 norm_1_random                   
     l_param         =  4.9714E-08  l_param         =  4.9714E-08
 norm_2_random                   
     wn_param        =  9.0549E-08  wn_param        =  9.0549E-08

 id_nmos= 1.2321e-04
 id_pmos=-1.6661e-04
 ion_nmos= 1.3690e+03
 ion_pmos= 9.2562e+02

   *** monte carlo  index =         2470 ***

       MONTE CARLO PARAMETER DEFINITIONS

 norm_1_random                   
     l_param         =  4.9185E-08  l_param         =  4.9185E-08
 norm_2_random                   
     wn_param        =  9.0455E-08  wn_param        =  9.0455E-08

 id_nmos= 1.2468e-04
 id_pmos=-1.6910e-04
 ion_nmos= 1.3853e+03
 ion_pmos= 9.3943e+02

   *** monte carlo  index =         2471 ***

       MONTE CARLO PARAMETER DEFINITIONS

 norm_1_random                   
     l_param         =  4.9934E-08  l_param         =  4.9934E-08
 norm_2_random                   
     wn_param        =  9.0352E-08  wn_param        =  9.0352E-08

 id_nmos= 1.2228e-04
 id_pmos=-1.6516e-04
 ion_nmos= 1.3586e+03
 ion_pmos= 9.1755e+02

   *** monte carlo  index =         2472 ***

       MONTE CARLO PARAMETER DEFINITIONS

 norm_1_random                   
     l_param         =  5.0066E-08  l_param         =  5.0066E-08
 norm_2_random                   
     wn_param        =  9.1920E-08  wn_param        =  9.1920E-08

 id_nmos= 1.2419e-04
 id_pmos=-1.6751e-04
 ion_nmos= 1.3798e+03
 ion_pmos= 9.3063e+02

   *** monte carlo  index =         2473 ***

       MONTE CARLO PARAMETER DEFINITIONS

 norm_1_random                   
     l_param         =  4.9708E-08  l_param         =  4.9708E-08
 norm_2_random                   
     wn_param        =  9.0887E-08  wn_param        =  9.0887E-08

 id_nmos= 1.2373e-04
 id_pmos=-1.6729e-04
 ion_nmos= 1.3748e+03
 ion_pmos= 9.2941e+02

   *** monte carlo  index =         2474 ***

       MONTE CARLO PARAMETER DEFINITIONS

 norm_1_random                   
     l_param         =  4.9468E-08  l_param         =  4.9468E-08
 norm_2_random                   
     wn_param        =  9.0899E-08  wn_param        =  9.0899E-08

 id_nmos= 1.2447e-04
 id_pmos=-1.6852e-04
 ion_nmos= 1.3830e+03
 ion_pmos= 9.3620e+02

   *** monte carlo  index =         2475 ***

       MONTE CARLO PARAMETER DEFINITIONS

 norm_1_random                   
     l_param         =  4.9717E-08  l_param         =  4.9717E-08
 norm_2_random                   
     wn_param        =  9.0598E-08  wn_param        =  9.0598E-08

 id_nmos= 1.2328e-04
 id_pmos=-1.6669e-04
 ion_nmos= 1.3697e+03
 ion_pmos= 9.2607e+02

   *** monte carlo  index =         2476 ***

       MONTE CARLO PARAMETER DEFINITIONS

 norm_1_random                   
     l_param         =  5.0397E-08  l_param         =  5.0397E-08
 norm_2_random                   
     wn_param        =  9.0836E-08  wn_param        =  9.0836E-08

 id_nmos= 1.2166e-04
 id_pmos=-1.6389e-04
 ion_nmos= 1.3518e+03
 ion_pmos= 9.1047e+02

   *** monte carlo  index =         2477 ***

       MONTE CARLO PARAMETER DEFINITIONS

 norm_1_random                   
     l_param         =  4.9896E-08  l_param         =  4.9896E-08
 norm_2_random                   
     wn_param        =  9.0865E-08  wn_param        =  9.0865E-08

 id_nmos= 1.2314e-04
 id_pmos=-1.6633e-04
 ion_nmos= 1.3682e+03
 ion_pmos= 9.2405e+02

   *** monte carlo  index =         2478 ***

       MONTE CARLO PARAMETER DEFINITIONS

 norm_1_random                   
     l_param         =  5.0090E-08  l_param         =  5.0090E-08
 norm_2_random                   
     wn_param        =  9.1412E-08  wn_param        =  9.1412E-08

 id_nmos= 1.2338e-04
 id_pmos=-1.6643e-04
 ion_nmos= 1.3708e+03
 ion_pmos= 9.2460e+02

   *** monte carlo  index =         2479 ***

       MONTE CARLO PARAMETER DEFINITIONS

 norm_1_random                   
     l_param         =  5.0463E-08  l_param         =  5.0463E-08
 norm_2_random                   
     wn_param        =  9.0413E-08  wn_param        =  9.0413E-08

 id_nmos= 1.2086e-04
 id_pmos=-1.6278e-04
 ion_nmos= 1.3429e+03
 ion_pmos= 9.0434e+02

   *** monte carlo  index =         2480 ***

       MONTE CARLO PARAMETER DEFINITIONS

 norm_1_random                   
     l_param         =  4.9963E-08  l_param         =  4.9963E-08
 norm_2_random                   
     wn_param        =  9.0934E-08  wn_param        =  9.0934E-08

 id_nmos= 1.2305e-04
 id_pmos=-1.6613e-04
 ion_nmos= 1.3671e+03
 ion_pmos= 9.2295e+02

   *** monte carlo  index =         2481 ***

       MONTE CARLO PARAMETER DEFINITIONS

 norm_1_random                   
     l_param         =  4.9889E-08  l_param         =  4.9889E-08
 norm_2_random                   
     wn_param        =  9.0110E-08  wn_param        =  9.0110E-08

 id_nmos= 1.2206e-04
 id_pmos=-1.6492e-04
 ion_nmos= 1.3561e+03
 ion_pmos= 9.1621e+02

   *** monte carlo  index =         2482 ***

       MONTE CARLO PARAMETER DEFINITIONS

 norm_1_random                   
     l_param         =  4.9845E-08  l_param         =  4.9845E-08
 norm_2_random                   
     wn_param        =  8.8855E-08  wn_param        =  8.8855E-08

 id_nmos= 1.2034e-04
 id_pmos=-1.6273e-04
 ion_nmos= 1.3371e+03
 ion_pmos= 9.0404e+02

   *** monte carlo  index =         2483 ***

       MONTE CARLO PARAMETER DEFINITIONS

 norm_1_random                   
     l_param         =  4.9775E-08  l_param         =  4.9775E-08
 norm_2_random                   
     wn_param        =  9.0651E-08  wn_param        =  9.0651E-08

 id_nmos= 1.2319e-04
 id_pmos=-1.6651e-04
 ion_nmos= 1.3687e+03
 ion_pmos= 9.2505e+02

   *** monte carlo  index =         2484 ***

       MONTE CARLO PARAMETER DEFINITIONS

 norm_1_random                   
     l_param         =  4.9787E-08  l_param         =  4.9787E-08
 norm_2_random                   
     wn_param        =  9.0738E-08  wn_param        =  9.0738E-08

 id_nmos= 1.2328e-04
 id_pmos=-1.6662e-04
 ion_nmos= 1.3697e+03
 ion_pmos= 9.2565e+02

   *** monte carlo  index =         2485 ***

       MONTE CARLO PARAMETER DEFINITIONS

 norm_1_random                   
     l_param         =  4.9940E-08  l_param         =  4.9940E-08
 norm_2_random                   
     wn_param        =  8.9035E-08  wn_param        =  8.9035E-08

 id_nmos= 1.2033e-04
 id_pmos=-1.6262e-04
 ion_nmos= 1.3370e+03
 ion_pmos= 9.0343e+02

   *** monte carlo  index =         2486 ***

       MONTE CARLO PARAMETER DEFINITIONS

 norm_1_random                   
     l_param         =  4.9714E-08  l_param         =  4.9714E-08
 norm_2_random                   
     wn_param        =  9.1283E-08  wn_param        =  9.1283E-08

 id_nmos= 1.2430e-04
 id_pmos=-1.6802e-04
 ion_nmos= 1.3810e+03
 ion_pmos= 9.3346e+02

   *** monte carlo  index =         2487 ***

       MONTE CARLO PARAMETER DEFINITIONS

 norm_1_random                   
     l_param         =  5.0170E-08  l_param         =  5.0170E-08
 norm_2_random                   
     wn_param        =  9.0038E-08  wn_param        =  9.0038E-08

 id_nmos= 1.2114e-04
 id_pmos=-1.6344e-04
 ion_nmos= 1.3460e+03
 ion_pmos= 9.0799e+02

   *** monte carlo  index =         2488 ***

       MONTE CARLO PARAMETER DEFINITIONS

 norm_1_random                   
     l_param         =  4.9818E-08  l_param         =  4.9818E-08
 norm_2_random                   
     wn_param        =  9.0400E-08  wn_param        =  9.0400E-08

 id_nmos= 1.2269e-04
 id_pmos=-1.6582e-04
 ion_nmos= 1.3632e+03
 ion_pmos= 9.2120e+02

   *** monte carlo  index =         2489 ***

       MONTE CARLO PARAMETER DEFINITIONS

 norm_1_random                   
     l_param         =  5.0089E-08  l_param         =  5.0089E-08
 norm_2_random                   
     wn_param        =  8.9550E-08  wn_param        =  8.9550E-08

 id_nmos= 1.2066e-04
 id_pmos=-1.6289e-04
 ion_nmos= 1.3406e+03
 ion_pmos= 9.0496e+02

   *** monte carlo  index =         2490 ***

       MONTE CARLO PARAMETER DEFINITIONS

 norm_1_random                   
     l_param         =  4.9698E-08  l_param         =  4.9698E-08
 norm_2_random                   
     wn_param        =  8.9322E-08  wn_param        =  8.9322E-08

 id_nmos= 1.2145e-04
 id_pmos=-1.6433e-04
 ion_nmos= 1.3494e+03
 ion_pmos= 9.1295e+02

   *** monte carlo  index =         2491 ***

       MONTE CARLO PARAMETER DEFINITIONS

 norm_1_random                   
     l_param         =  5.0391E-08  l_param         =  5.0391E-08
 norm_2_random                   
     wn_param        =  8.8737E-08  wn_param        =  8.8737E-08

 id_nmos= 1.1863e-04
 id_pmos=-1.5995e-04
 ion_nmos= 1.3181e+03
 ion_pmos= 8.8862e+02

   *** monte carlo  index =         2492 ***

       MONTE CARLO PARAMETER DEFINITIONS

 norm_1_random                   
     l_param         =  4.9964E-08  l_param         =  4.9964E-08
 norm_2_random                   
     wn_param        =  9.0997E-08  wn_param        =  9.0997E-08

 id_nmos= 1.2314e-04
 id_pmos=-1.6625e-04
 ion_nmos= 1.3681e+03
 ion_pmos= 9.2360e+02

   *** monte carlo  index =         2493 ***

       MONTE CARLO PARAMETER DEFINITIONS

 norm_1_random                   
     l_param         =  4.9929E-08  l_param         =  4.9929E-08
 norm_2_random                   
     wn_param        =  8.9424E-08  wn_param        =  8.9424E-08

 id_nmos= 1.2093e-04
 id_pmos=-1.6341e-04
 ion_nmos= 1.3437e+03
 ion_pmos= 9.0784e+02

   *** monte carlo  index =         2494 ***

       MONTE CARLO PARAMETER DEFINITIONS

 norm_1_random                   
     l_param         =  5.0173E-08  l_param         =  5.0173E-08
 norm_2_random                   
     wn_param        =  8.9783E-08  wn_param        =  8.9783E-08

 id_nmos= 1.2076e-04
 id_pmos=-1.6294e-04
 ion_nmos= 1.3418e+03
 ion_pmos= 9.0522e+02

   *** monte carlo  index =         2495 ***

       MONTE CARLO PARAMETER DEFINITIONS

 norm_1_random                   
     l_param         =  4.9791E-08  l_param         =  4.9791E-08
 norm_2_random                   
     wn_param        =  8.9832E-08  wn_param        =  8.9832E-08

 id_nmos= 1.2193e-04
 id_pmos=-1.6486e-04
 ion_nmos= 1.3548e+03
 ion_pmos= 9.1588e+02

   *** monte carlo  index =         2496 ***

       MONTE CARLO PARAMETER DEFINITIONS

 norm_1_random                   
     l_param         =  5.0093E-08  l_param         =  5.0093E-08
 norm_2_random                   
     wn_param        =  9.0281E-08  wn_param        =  9.0281E-08

 id_nmos= 1.2172e-04
 id_pmos=-1.6426e-04
 ion_nmos= 1.3523e+03
 ion_pmos= 9.1257e+02

   *** monte carlo  index =         2497 ***

       MONTE CARLO PARAMETER DEFINITIONS

 norm_1_random                   
     l_param         =  5.0157E-08  l_param         =  5.0157E-08
 norm_2_random                   
     wn_param        =  8.9958E-08  wn_param        =  8.9958E-08

 id_nmos= 1.2106e-04
 id_pmos=-1.6335e-04
 ion_nmos= 1.3451e+03
 ion_pmos= 9.0747e+02

   *** monte carlo  index =         2498 ***

       MONTE CARLO PARAMETER DEFINITIONS

 norm_1_random                   
     l_param         =  5.0102E-08  l_param         =  5.0102E-08
 norm_2_random                   
     wn_param        =  8.9977E-08  wn_param        =  8.9977E-08

 id_nmos= 1.2125e-04
 id_pmos=-1.6365e-04
 ion_nmos= 1.3472e+03
 ion_pmos= 9.0914e+02

   *** monte carlo  index =         2499 ***

       MONTE CARLO PARAMETER DEFINITIONS

 norm_1_random                   
     l_param         =  4.9455E-08  l_param         =  4.9455E-08
 norm_2_random                   
     wn_param        =  8.9801E-08  wn_param        =  8.9801E-08

 id_nmos= 1.2288e-04
 id_pmos=-1.6646e-04
 ion_nmos= 1.3653e+03
 ion_pmos= 9.2475e+02

   *** monte carlo  index =         2500 ***

       MONTE CARLO PARAMETER DEFINITIONS

 norm_1_random                   
     l_param         =  4.9678E-08  l_param         =  4.9678E-08
 norm_2_random                   
     wn_param        =  8.8782E-08  wn_param        =  8.8782E-08

 id_nmos= 1.2071e-04
 id_pmos=-1.6338e-04
 ion_nmos= 1.3412e+03
 ion_pmos= 9.0769e+02

   meas_variable = id_nmos
   mean  = 1.216e-04  varian = 2.547e-12
   sigma = 1.596e-06  avgdev = 1.280e-06
   max   = 1.279e-04  min    = 1.165e-04
    1-sigma = 1.596e-06 median = 1.215e-04

   meas_variable = id_pmos
   mean  =-1.642e-04  varian = 5.386e-12
   sigma = 2.321e-06  avgdev = 1.865e-06
   max   =-1.568e-04  min    =-1.739e-04
    1-sigma = 2.321e-06 median =-1.641e-04

   meas_variable = ion_nmos
   mean  = 1.350e+03  varian = 3.146e+02
   sigma = 1.773e+01  avgdev = 1.423e+01
   max   = 1.421e+03  min    = 1.294e+03
    1-sigma = 1.773e+01 median = 1.350e+03

   meas_variable = ion_pmos
   mean  = 9.122e+02  varian = 1.661e+02
   sigma = 1.288e+01  avgdev = 1.035e+01
   max   = 9.659e+02  min    = 8.711e+02
    1-sigma = 1.288e+01 median = 9.117e+02

          ***** job concluded
1****** HSPICE -- I-2013.12-SP1 64-BIT (Feb 25 2014) RHEL64 ******              
 ******  
 tttt

  ******  job statistics summary tnom=  25.000 temp=  25.000 *****
  
  
 ******  Machine Information  ******
 CPU:
 model name	: Intel(R) Xeon(R) CPU E5-2690 v2 @ 3.00GHz
 cpu MHz	: 3010.794
  
 OS:
 Linux version 2.6.32-696.1.1.el6.x86_64 (mockbuild@c1bm.rdu2.centos.org) (gcc version 4.4.7 20120313 (Red Hat 4.4.7-18) (GCC) ) #1 SMP Tue Apr 11 17:13:24 UTC 2017


  ******  HSPICE Threads Information  ******

  Command Line Threads Count :     1
  Available CPU Count        :    40
  Actual Threads Count       :     1


  ******  Circuit Statistics  ******
  # nodes       =      13 # elements   =       6
  # resistors   =       0 # capacitors =       0 # inductors   =       0
  # mutual_inds =       0 # vccs       =       0 # vcvs        =       0
  # cccs        =       0 # ccvs       =       0 # volt_srcs   =       4
  # curr_srcs   =       0 # diodes     =       0 # bjts        =       0
  # jfets       =       0 # mosfets    =       2 # U elements  =       0
  # T elements  =       0 # W elements =       0 # B elements  =       0
  # S elements  =       0 # P elements =       0 # va device   =       0
  # vector_srcs =       0 # N elements =       0


  ******  Runtime Statistics (seconds)  ******

  analysis           time    # points   tot. iter  conv.iter
  op point           0.00           1           0
  dc sweep           7.71      277500      557501
  readin             0.01
  errchk             0.00
  setup              0.00
  output             0.06


           peak memory used        173.31 megabytes
           total cpu time           10.38 seconds
           total elapsed time       29.35 seconds
           job started at     19:46:15 05/25/2020
           job ended   at     19:46:45 05/25/2020


 lic: Release hspice token(s) 
 lic: total license checkout elapse time:       18.97(s)
