$DATA1 SOURCE='HSPICE' VERSION='I-2013.12-SP1 64-BIT'
.TITLE 'tsfs'
 id_nmos          id_pmos          ion_nmos         ion_pmos          
 temper           alter#            
  1.108e-04       -1.297e-04        1.231e+03        7.204e+02        
  2.500e+01       34                
