$DATA1 SOURCE='HSPICE' VERSION='I-2013.12-SP1 64-BIT'
.TITLE 'ssst'
 id_nmos          id_pmos          ion_nmos         ion_pmos          
 temper           alter#            
  6.148e-05       -8.614e-05        6.830e+02        4.785e+02        
  1.250e+02       2                 
