$DATA1 SOURCE='HSPICE' VERSION='I-2013.12-SP1 64-BIT'
.TITLE 'ftst'
 id_nmos          id_pmos          ion_nmos         ion_pmos          
 temper           alter#            
  1.442e-04       -2.164e-04        1.602e+03        1.202e+03        
 -4.500e+01       65                
