$DATA1 SOURCE='HSPICE' VERSION='I-2013.12-SP1 64-BIT'
.TITLE 'sftf'
 id_nmos          id_pmos          ion_nmos         ion_pmos          
 temper           alter#            
  8.976e-05       -1.236e-04        9.973e+02        6.867e+02        
  1.250e+02       24                
