$DATA1 SOURCE='HSPICE' VERSION='I-2013.12-SP1 64-BIT'
.TITLE 'tfss'
 id_nmos          id_pmos          ion_nmos         ion_pmos          
 temper           alter#            
  1.310e-04       -1.801e-04        1.455e+03        1.000e+03        
  2.500e+01       46                
