 ****** HSPICE -- I-2013.12-SP1 64-BIT (Feb 25 2014) RHEL64 ******              
  Copyright (C) 2014 Synopsys, Inc. All Rights Reserved.                        
  Unpublished-rights reserved under US copyright laws.
  This program is protected by law and is subject to the
  terms and conditions of the license agreement from Synopsys.
  Use of this program is your acceptance to be bound by the
  license agreement. HSPICE is the trademark of Synopsys, Inc.
  Input File: mos_ion.sp                                                        
  Command line options: mos_ion.sp -o output/
 lic:  
 lic: FLEXlm: v10.9.8 
 lic: USER:   2015104069           HOSTNAME: vlsi-dist.khu.ac.kr 
 lic: HOSTID: 382c4ac7d475         PID:      9569 
 lic: Using FLEXlm license file: 
 lic: 27020@163.180.118.27 
 lic: Checkout 1 hspice 
 lic: License/Maintenance for hspice will expire on 30-jun-2020/2018.09 
 lic: 1(in_use)/7(total) FLOATING license(s) on SERVER 27020@163.180.118.27 
 lic:   
 Init: read install configuration file: /Tools/Synopsys/Hspice/hspice/meta.cfg
 (mos_ion.sp:39)
 **warning** unknown command ".DELLIB" is ignored
 (mos_ion.sp:43)
 **warning** unknown command ".DELLIB" is ignored
 (mos_ion.sp:47)
 **warning** unknown command ".DELLIB" is ignored
1****** HSPICE -- I-2013.12-SP1 64-BIT (Feb 25 2014) RHEL64 ******              
 ******  
 ** generated for: hspiced

  ******  mos   model parameters tnom=  25.000 temp=  25.000 *****
 Model Name: nmos_vtl  
 BSIM4 Model (Level 54)
    MOBMOD = 0
    BINUNIT = 1
    PARAMCHK = 1
    CAPMOD = 2
    DIOMOD = 1
    RDSMOD = 0
    TRNQSMOD = 0
    ACNQSMOD = 0
    RBODYMOD = 1
    RGATEMOD = 1
    PERMOD = 1
    GEOMOD = 1
    RGEOMOD = 0
    FNOIMOD = 1
    TNOIMOD = 0
    IGCMOD = 1
    IGBMOD = 1
    STIMOD = 0
    VERSION =      4 
    TOXREF = 1.17e-09 
    TOXE = 1.17e-09 
    TOXP =  1e-09 
    TOXM = 1.17e-09 
    DTOX = 1.7e-10 
    EPSROX =    3.9 
    CDSC =      0 
    CDSCB =      0 
    CDSCD =      0 
    CIT =      0 
    NFACTOR =    2.1 
    XJ = 2.05e-08 
    VSAT = 1.48e+05 
    A0 =      1 
    AGS =      0 
    A1 =      0 
    A2 =      1 
    AT = 3.3e+04 
    KETA =   0.04 
    NSUB =  6e+16 
    NDEP = 3.6e+18 
    NSD =  2e+20 
    NGATE =  3e+20 
    GAMMA1 =      0 
    GAMMA2 =      0 
    VBX =      0 
    VBM =     -3 
    XT = 1.55e-07 
    K1 =    0.4 
    KT1 =  -0.11 
    KT1L =      0 
    KT2 =  0.022 
    K2 =      0 
    K3 =      0 
    K3B =      0 
    LPE0 =      0 
    LPEB =      0 
    DVTP0 =  1e-10 
    DVTP1 =    0.1 
    W0 = 2.5e-06 
    DVT0 =      1 
    DVT1 =      2 
    DVT2 =      0 
    DVT0W =      0 
    DVT1W =      0 
    DVT2W =      0 
    DROUT =    0.5 
    DSUB =    0.1 
    VTH0 =  0.347 
    EU =   1.67 
    UA =  6e-10 
    UA1 = 4.31e-09 
    UB = 1.2e-18 
    UB1 = 7.61e-18 
    UC =      0 
    UC1 = -5.6e-11 
    U0 =  0.044 
    UTE =   -1.5 
    VOFF =  -0.13 
    VOFFL =      0 
    MINV =   0.05 
    FPROUT =    0.2 
    PDITS =   0.08 
    PDITSD =   0.23 
    PDITSL = 2.3e+06 
    DELTA =   0.01 
    RDSW =    155 
    RDSWMIN =      0 
    RDWMIN =      0 
    RSWMIN =      0 
    RDW =     80 
    RSW =     80 
    PRWG =      0 
    PRWB =      0 
    PRT =      0 
    ETA0 =  0.006 
    ETAB =      0 
    PCLM =   0.02 
    PDIBLC1 =  0.001 
    PDIBLC2 =  0.001 
    PDIBLCB = -0.005 
    PSCBE1 = 8.14e+08 
    PSCBE2 =  1e-07 
    PVAG =  1e-20 
    WR =      1 
    DWG =      0 
    DWB =      0 
    XW =      0 
    XWREF =      0 
    XL = -2e-08 
    XLREF = -2e-08 
    B0 =      0 
    B1 =      0 
    ALPHA0 =  0.074 
    ALPHA1 =  0.005 
    AGIDL = 0.0002 
    BGIDL = 2.1e+09 
    CGIDL = 0.0002 
    PHIN =      0 
    EGIDL =    0.8 
    AIGC =   0.02 
    BIGC = 0.0027 
    CIGC =  0.002 
    AIGSD =   0.02 
    BIGSD = 0.0027 
    CIGSD =  0.002 
    AIGBACC =  0.012 
    BIGBACC = 0.0028 
    CIGBACC =  0.002 
    AIGBINV =  0.014 
    BIGBINV =  0.004 
    CIGBINV =  0.004 
    NIGC =      1 
    NIGBINV =      3 
    NIGBACC =      1 
    NTOX =      1 
    EIGBINV =    1.1 
    PIGCD =      1 
    POXEDGE =      1 
    XRCRG1 =     12 
    TNOIA =    1.5 
    TNOIB =    3.5 
    NTNOI =      1 
    XRCRG2 =      5 
    BETA0 =     30 
    IJTHDFWD =   0.01 
    IJTHSFWD =   0.01 
    IJTHDREV =  0.001 
    IJTHSREV =  0.001 
    XJBVD =      1 
    XJBVS =      1 
    BVD =     10 
    BVS =     10 
    VFB =  -0.55 
    GBMIN =  1e-10 
    RBDB =     15 
    RBPB =      5 
    RBSB =     15 
    RBPS =     15 
    RBPD =     15 
    CGSL = 2.653e-10 
    CGDL = 2.653e-10 
    CKAPPAS =   0.03 
    CKAPPAD =   0.03 
    CF = 1.283e-10 
    CLC =  1e-07 
    CLE =    0.6 
    DWC =  5e-09 
    DLC = 3.225e-09 
    DLCIG = 3.225e-09 
    DWJ =      0 
    VFBCV =     -1 
    ACDE =      1 
    MOIN =     15 
    NOFF =    0.9 
    VOFFCV =   0.02 
    DMCG =      0 
    DMCI =      0 
    DMDG =      0 
    DMCGT =      0 
    XGW =      0 
    XGL =      0 
    RSHG =    0.4 
    NGCON =      1 
    TCJ =  0.001 
    TPB =  0.005 
    TCJSW =  0.001 
    TPBSW =  0.005 
    TCJSWG =  0.001 
    TPBSWG =  0.005 
    SK0 =      0 
    SK1 =      0 
    SK2 =      0 
    SL =  2e-06 
    SW =  2e-06 
    K =      0 
    TNOM =  300.1 
    CGSO = 1.1e-10 
    CGDO = 1.1e-10 
    CGBO = 2.56e-11 
    XPART =      0 
    RSH =      5 
    JSS = 0.0001 
    JSWS =  1e-11 
    JSWGS =  1e-10 
    PBS =      1 
    MJS =    0.5 
    PBSWS =      1 
    MJSWS =   0.33 
    CJS = 0.0005 
    CJSWS =  5e-10 
    NJS =      1 
    PBSWGS =      1 
    MJSWGS =   0.33 
    CJSWGS =  3e-10 
    XTIS =      3 
    JSD = 0.0001 
    JSWD =  1e-11 
    JSWGD =  1e-10 
    PBD =      1 
    MJD =    0.5 
    PBSWD =      1 
    MJSWD =   0.33 
    CJD = 0.0005 
    CJSWD =  5e-10 
    NJD =      1 
    PBSWGD =      1 
    MJSWGD =   0.33 
    CJSWGD =  5e-10 
    XTID =      3 
    LMLT =      1 
    WMLT =      1 
    LINT = 3.225e-09 
    LL =      0 
    LLC =      0 
    LLN =      1 
    LW =      0 
    LWC =      0 
    LWN =      1 
    LWL =      0 
    LWLC =      0 
    LMIN =      0 
    LMAX =      1 
    WINT =  5e-09 
    WL =      0 
    WLC =      0 
    WLN =      1 
    WW =      0 
    WWC =      0 
    WWN =      1 
    WWL =      0 
    WWLC =      0 
    WMIN =      0 
    WMAX =      1 
    NOIA = 6.25e+41 
    NOIB = 3.125e+26 
    NOIC = 8.75e+09 
    EM = 4.1e+07 
    EF =      1 
    AF =      1 
    KF =      0 
    TRS =      0 
    TRD =      0 
 Model Name: pmos_vtl  
 BSIM4 Model (Level 54)
    MOBMOD = 0
    BINUNIT = 1
    PARAMCHK = 1
    CAPMOD = 2
    DIOMOD = 1
    RDSMOD = 0
    TRNQSMOD = 0
    ACNQSMOD = 0
    RBODYMOD = 1
    RGATEMOD = 1
    PERMOD = 1
    GEOMOD = 1
    RGEOMOD = 0
    FNOIMOD = 1
    TNOIMOD = 0
    IGCMOD = 1
    IGBMOD = 1
    STIMOD = 0
    VERSION =      4 
    TOXREF = 1.3e-09 
    TOXE = 1.3e-09 
    TOXP =  1e-09 
    TOXM = 1.3e-09 
    DTOX =  3e-10 
    EPSROX =    3.9 
    CDSC =      0 
    CDSCB =      0 
    CDSCD =      0 
    CIT =      0 
    NFACTOR =   2.22 
    XJ = 1.98e-08 
    VSAT = 6.9e+04 
    A0 =      1 
    AGS =  1e-20 
    A1 =      0 
    A2 =      1 
    AT = 3.3e+04 
    KETA = -0.047 
    NSUB =  6e+16 
    NDEP = 2.44e+18 
    NSD =  2e+20 
    NGATE =  2e+20 
    GAMMA1 =      0 
    GAMMA2 =      0 
    VBX =      0 
    VBM =     -3 
    XT = 1.55e-07 
    K1 =    0.4 
    KT1 =  -0.11 
    KT1L =      0 
    KT2 =  0.022 
    K2 =  -0.01 
    K3 =      0 
    K3B =      0 
    LPE0 =      0 
    LPEB =      0 
    DVTP0 =  1e-11 
    DVTP1 =   0.05 
    W0 = 2.5e-06 
    DVT0 =      1 
    DVT1 =      2 
    DVT2 = -0.032 
    DVT0W =      0 
    DVT1W =      0 
    DVT2W =      0 
    DROUT =   0.56 
    DSUB =    0.1 
    VTH0 = -0.3271 
    EU =      1 
    UA =  2e-09 
    UA1 = 4.31e-09 
    UB =  5e-19 
    UB1 = 7.61e-18 
    UC =      0 
    UC1 = -5.6e-11 
    U0 =   0.02 
    UTE =   -1.5 
    VOFF = -0.126 
    VOFFL =      0 
    MINV =   0.05 
    FPROUT =    0.2 
    PDITS =   0.08 
    PDITSD =   0.23 
    PDITSL = 2.3e+06 
    DELTA =   0.01 
    RDSW =    155 
    RDSWMIN =      0 
    RDWMIN =      0 
    RSWMIN =      0 
    RDW =     75 
    RSW =     75 
    PRWG =      0 
    PRWB =      0 
    PRT =      0 
    ETA0 = 0.0055 
    ETAB =      0 
    PCLM =   0.12 
    PDIBLC1 =  0.001 
    PDIBLC2 =  0.001 
    PDIBLCB = 3.4e-08 
    PSCBE1 = 8.14e+08 
    PSCBE2 = 9.58e-07 
    PVAG =  1e-20 
    WR =      1 
    DWG =      0 
    DWB =      0 
    XW =      0 
    XWREF =      0 
    XL = -2e-08 
    XLREF = -2e-08 
    B0 =      0 
    B1 =      0 
    ALPHA0 =  0.074 
    ALPHA1 =  0.005 
    AGIDL = 0.0002 
    BGIDL = 2.1e+09 
    CGIDL = 0.0002 
    PHIN =      0 
    EGIDL =    0.8 
    AIGC = 0.01069 
    BIGC = 0.001261 
    CIGC = 0.0008 
    AIGSD = 0.01069 
    BIGSD = 0.001261 
    CIGSD = 0.0008 
    AIGBACC =  0.012 
    BIGBACC = 0.0028 
    CIGBACC =  0.002 
    AIGBINV =  0.014 
    BIGBINV =  0.004 
    CIGBINV =  0.004 
    NIGC =      1 
    NIGBINV =      3 
    NIGBACC =      1 
    NTOX =      1 
    EIGBINV =    1.1 
    PIGCD =      1 
    POXEDGE =      1 
    XRCRG1 =     12 
    TNOIA =    1.5 
    TNOIB =    3.5 
    NTNOI =      1 
    XRCRG2 =      5 
    BETA0 =     30 
    IJTHDFWD =   0.01 
    IJTHSFWD =   0.01 
    IJTHDREV =  0.001 
    IJTHSREV =  0.001 
    XJBVD =      1 
    XJBVS =      1 
    BVD =     10 
    BVS =     10 
    VFB =   0.55 
    GBMIN =  1e-10 
    RBDB =     15 
    RBPB =      5 
    RBSB =     15 
    RBPS =     15 
    RBPD =     15 
    CGSL = 2.653e-10 
    CGDL = 2.653e-10 
    CKAPPAS =   0.03 
    CKAPPAD =   0.03 
    CF = 1.26e-10 
    CLC =  1e-07 
    CLE =    0.6 
    DWC =  5e-09 
    DLC = 3.225e-09 
    DLCIG = 3.225e-09 
    DWJ =      0 
    VFBCV =     -1 
    ACDE =      1 
    MOIN =     15 
    NOFF =    0.9 
    VOFFCV =   0.02 
    DMCG =      0 
    DMCI =      0 
    DMDG =      0 
    DMCGT =      0 
    XGW =      0 
    XGL =      0 
    RSHG =    0.4 
    NGCON =      1 
    TCJ =  0.001 
    TPB =  0.005 
    TCJSW =  0.001 
    TPBSW =  0.005 
    TCJSWG =  0.001 
    TPBSWG =  0.005 
    SK0 =      0 
    SK1 =      0 
    SK2 =      0 
    SL =  2e-06 
    SW =  2e-06 
    K =      0 
    TNOM =  300.1 
    CGSO = 1.1e-10 
    CGDO = 1.1e-10 
    CGBO = 2.56e-11 
    XPART =      0 
    RSH =      5 
    JSS = 0.0001 
    JSWS =  1e-11 
    JSWGS =  1e-10 
    PBS =      1 
    MJS =    0.5 
    PBSWS =      1 
    MJSWS =   0.33 
    CJS = 0.0005 
    CJSWS =  5e-10 
    NJS =      1 
    PBSWGS =      1 
    MJSWGS =   0.33 
    CJSWGS =  3e-10 
    XTIS =      3 
    JSD = 0.0001 
    JSWD =  1e-11 
    JSWGD =  1e-10 
    PBD =      1 
    MJD =    0.5 
    PBSWD =      1 
    MJSWD =   0.33 
    CJD = 0.0005 
    CJSWD =  5e-10 
    NJD =      1 
    PBSWGD =      1 
    MJSWGD =   0.33 
    CJSWGD =  5e-10 
    XTID =      3 
    LMLT =      1 
    WMLT =      1 
    LINT = 3.225e-09 
    LL =      0 
    LLC =      0 
    LLN =      1 
    LW =      0 
    LWC =      0 
    LWN =      1 
    LWL =      0 
    LWLC =      0 
    LMIN =      0 
    LMAX =      1 
    WINT =  5e-09 
    WL =      0 
    WLC =      0 
    WLN =      1 
    WW =      0 
    WWC =      0 
    WWN =      1 
    WWL =      0 
    WWLC =      0 
    WMIN =      0 
    WMAX =      1 
    NOIA = 6.188e+40 
    NOIB = 1.5e+25 
    NOIC = 8.75e+09 
    EM = 4.1e+07 
    EF =      1 
    AF =      1 
    KF =      0 
    TRS =      0 
    TRD =      0 
 **warning**(nmos_vtl:m0)Warning:  Acde = 0.273012 may be too small in BSIM4 model with w=9e-08 l=5e-08.
  
  
      
 **info** set option symb=1 internally to help for convergence.
 *****************************************************************
 ******  option summary
 ******
 runlvl  = 3         bypass  = 2         
  
 ion_nmos= 6.1477e-05
 ion_pmos=-7.9372e-05

a


      volt       i(m0))
 (a       )    -5.000e-05     0.000e+00     5.000e-05     1.000e-04    1.500e-04
                      +             +             +             +             + 
  0.000e+00 -8.15e-11-+------+------a------+------+------+------+------+------+-
  1.000e-02  1.67e-06 +      +      a      +      +      +      +      +      + 
  2.000e-02  3.31e-06 +      +      +a     +      +      +      +      +      + 
  3.000e-02  4.93e-06 +      +      +a     +      +      +      +      +      + 
  4.000e-02  6.51e-06 +      +      + a    +      +      +      +      +      + 
  5.000e-02  8.07e-06 +      +      + a    +      +      +      +      +      + 
  6.000e-02  9.61e-06 +      +      +  a   +      +      +      +      +      + 
  7.000e-02  1.11e-05 +      +      +  a   +      +      +      +      +      + 
  8.000e-02  1.26e-05 +      +      +   a  +      +      +      +      +      + 
  9.000e-02  1.40e-05 +      +      +   a  +      +      +      +      +      + 
  1.000e-01  1.55e-05-+------+------+---a--+------+------+------+------+------+-
  1.100e-01  1.69e-05 +      +      +    a +      +      +      +      +      + 
  1.200e-01  1.82e-05 +      +      +    a +      +      +      +      +      + 
  1.300e-01  1.96e-05 +      +      +    a +      +      +      +      +      + 
  1.400e-01  2.09e-05 +      +      +     a+      +      +      +      +      + 
  1.500e-01  2.22e-05 +      +      +     a+      +      +      +      +      + 
  1.600e-01  2.35e-05 +      +      +      a      +      +      +      +      + 
  1.700e-01  2.47e-05 +      +      +      a      +      +      +      +      + 
  1.800e-01  2.59e-05 +      +      +      a      +      +      +      +      + 
  1.900e-01  2.71e-05 +      +      +      +a     +      +      +      +      + 
  2.000e-01  2.83e-05-+------+------+------+a-----+------+------+------+------+-
  2.100e-01  2.94e-05 +      +      +      +a     +      +      +      +      + 
  2.200e-01  3.06e-05 +      +      +      + a    +      +      +      +      + 
  2.300e-01  3.16e-05 +      +      +      + a    +      +      +      +      + 
  2.400e-01  3.27e-05 +      +      +      + a    +      +      +      +      + 
  2.500e-01  3.37e-05 +      +      +      + a    +      +      +      +      + 
  2.600e-01  3.48e-05 +      +      +      +  a   +      +      +      +      + 
  2.700e-01  3.57e-05 +      +      +      +  a   +      +      +      +      + 
  2.800e-01  3.67e-05 +      +      +      +  a   +      +      +      +      + 
  2.900e-01  3.77e-05 +      +      +      +   a  +      +      +      +      + 
  3.000e-01  3.86e-05-+------+------+------+---a--+------+------+------+------+-
  3.100e-01  3.95e-05 +      +      +      +   a  +      +      +      +      + 
  3.200e-01  4.03e-05 +      +      +      +   a  +      +      +      +      + 
  3.300e-01  4.12e-05 +      +      +      +    a +      +      +      +      + 
  3.400e-01  4.20e-05 +      +      +      +    a +      +      +      +      + 
  3.500e-01  4.28e-05 +      +      +      +    a +      +      +      +      + 
  3.600e-01  4.35e-05 +      +      +      +    a +      +      +      +      + 
  3.700e-01  4.43e-05 +      +      +      +    a +      +      +      +      + 
  3.800e-01  4.50e-05 +      +      +      +     a+      +      +      +      + 
  3.900e-01  4.57e-05 +      +      +      +     a+      +      +      +      + 
  4.000e-01  4.63e-05-+------+------+------+-----a+------+------+------+------+-
  4.100e-01  4.70e-05 +      +      +      +     a+      +      +      +      + 
  4.200e-01  4.76e-05 +      +      +      +     a+      +      +      +      + 
  4.300e-01  4.82e-05 +      +      +      +     a+      +      +      +      + 
  4.400e-01  4.87e-05 +      +      +      +      a      +      +      +      + 
  4.500e-01  4.93e-05 +      +      +      +      a      +      +      +      + 
  4.600e-01  4.98e-05 +      +      +      +      a      +      +      +      + 
  4.700e-01  5.03e-05 +      +      +      +      a      +      +      +      + 
  4.800e-01  5.07e-05 +      +      +      +      a      +      +      +      + 
  4.900e-01  5.12e-05 +      +      +      +      a      +      +      +      + 
  5.000e-01  5.16e-05-+------+------+------+------a------+------+------+------+-
  5.100e-01  5.20e-05 +      +      +      +      +a     +      +      +      + 
  5.200e-01  5.24e-05 +      +      +      +      +a     +      +      +      + 
  5.300e-01  5.27e-05 +      +      +      +      +a     +      +      +      + 
  5.400e-01  5.30e-05 +      +      +      +      +a     +      +      +      + 
  5.500e-01  5.34e-05 +      +      +      +      +a     +      +      +      + 
  5.600e-01  5.37e-05 +      +      +      +      +a     +      +      +      + 
  5.700e-01  5.40e-05 +      +      +      +      +a     +      +      +      + 
  5.800e-01  5.42e-05 +      +      +      +      +a     +      +      +      + 
  5.900e-01  5.45e-05 +      +      +      +      +a     +      +      +      + 
  6.000e-01  5.47e-05-+------+------+------+------+a-----+------+------+------+-
  6.100e-01  5.50e-05 +      +      +      +      +a     +      +      +      + 
  6.200e-01  5.52e-05 +      +      +      +      +a     +      +      +      + 
  6.300e-01  5.54e-05 +      +      +      +      + a    +      +      +      + 
  6.400e-01  5.56e-05 +      +      +      +      + a    +      +      +      + 
  6.500e-01  5.58e-05 +      +      +      +      + a    +      +      +      + 
  6.600e-01  5.61e-05 +      +      +      +      + a    +      +      +      + 
  6.700e-01  5.62e-05 +      +      +      +      + a    +      +      +      + 
  6.800e-01  5.64e-05 +      +      +      +      + a    +      +      +      + 
  6.900e-01  5.66e-05 +      +      +      +      + a    +      +      +      + 
  7.000e-01  5.68e-05-+------+------+------+------+-a----+------+------+------+-
  7.100e-01  5.70e-05 +      +      +      +      + a    +      +      +      + 
  7.200e-01  5.72e-05 +      +      +      +      + a    +      +      +      + 
  7.300e-01  5.74e-05 +      +      +      +      + a    +      +      +      + 
  7.400e-01  5.75e-05 +      +      +      +      + a    +      +      +      + 
  7.500e-01  5.77e-05 +      +      +      +      + a    +      +      +      + 
  7.600e-01  5.79e-05 +      +      +      +      + a    +      +      +      + 
  7.700e-01  5.80e-05 +      +      +      +      + a    +      +      +      + 
  7.800e-01  5.82e-05 +      +      +      +      + a    +      +      +      + 
  7.900e-01  5.84e-05 +      +      +      +      + a    +      +      +      + 
  8.000e-01  5.85e-05-+------+------+------+------+-a----+------+------+------+-
  8.100e-01  5.87e-05 +      +      +      +      + a    +      +      +      + 
  8.200e-01  5.89e-05 +      +      +      +      + a    +      +      +      + 
  8.300e-01  5.90e-05 +      +      +      +      +  a   +      +      +      + 
  8.400e-01  5.92e-05 +      +      +      +      +  a   +      +      +      + 
  8.500e-01  5.93e-05 +      +      +      +      +  a   +      +      +      + 
  8.600e-01  5.95e-05 +      +      +      +      +  a   +      +      +      + 
  8.700e-01  5.96e-05 +      +      +      +      +  a   +      +      +      + 
  8.800e-01  5.98e-05 +      +      +      +      +  a   +      +      +      + 
  8.900e-01  6.00e-05 +      +      +      +      +  a   +      +      +      + 
  9.000e-01  6.01e-05-+------+------+------+------+--a---+------+------+------+-
  9.100e-01  6.03e-05 +      +      +      +      +  a   +      +      +      + 
  9.200e-01  6.04e-05 +      +      +      +      +  a   +      +      +      + 
  9.300e-01  6.06e-05 +      +      +      +      +  a   +      +      +      + 
  9.400e-01  6.07e-05 +      +      +      +      +  a   +      +      +      + 
  9.500e-01  6.09e-05 +      +      +      +      +  a   +      +      +      + 
  9.600e-01  6.10e-05 +      +      +      +      +  a   +      +      +      + 
  9.700e-01  6.12e-05 +      +      +      +      +  a   +      +      +      + 
  9.800e-01  6.13e-05 +      +      +      +      +  a   +      +      +      + 
  9.900e-01  6.15e-05 +      +      +      +      +  a   +      +      +      + 
                      +             +             +             +             + 

b


a


      volt       i(m1))
 (a       )    -1.000e-04    -5.000e-05     0.000e+00     5.000e-05    1.000e-04
                      +             +             +             +             + 
  0.000e+00 -7.94e-05-+-----a+------+------+------+------+------+------+------+-
  1.000e-02 -7.91e-05 +     a+      +      +      +      +      +      +      + 
  2.000e-02 -7.89e-05 +     a+      +      +      +      +      +      +      + 
  3.000e-02 -7.86e-05 +     a+      +      +      +      +      +      +      + 
  4.000e-02 -7.84e-05 +     a+      +      +      +      +      +      +      + 
  5.000e-02 -7.81e-05 +     a+      +      +      +      +      +      +      + 
  6.000e-02 -7.79e-05 +     a+      +      +      +      +      +      +      + 
  7.000e-02 -7.76e-05 +     a+      +      +      +      +      +      +      + 
  8.000e-02 -7.74e-05 +     a+      +      +      +      +      +      +      + 
  9.000e-02 -7.71e-05 +     a+      +      +      +      +      +      +      + 
  1.000e-01 -7.69e-05-+-----a+------+------+------+------+------+------+------+-
  1.100e-01 -7.66e-05 +      a      +      +      +      +      +      +      + 
  1.200e-01 -7.64e-05 +      a      +      +      +      +      +      +      + 
  1.300e-01 -7.61e-05 +      a      +      +      +      +      +      +      + 
  1.400e-01 -7.58e-05 +      a      +      +      +      +      +      +      + 
  1.500e-01 -7.56e-05 +      a      +      +      +      +      +      +      + 
  1.600e-01 -7.53e-05 +      a      +      +      +      +      +      +      + 
  1.700e-01 -7.50e-05 +      a      +      +      +      +      +      +      + 
  1.800e-01 -7.48e-05 +      a      +      +      +      +      +      +      + 
  1.900e-01 -7.45e-05 +      a      +      +      +      +      +      +      + 
  2.000e-01 -7.42e-05-+------a------+------+------+------+------+------+------+-
  2.100e-01 -7.40e-05 +      a      +      +      +      +      +      +      + 
  2.200e-01 -7.37e-05 +      a      +      +      +      +      +      +      + 
  2.300e-01 -7.34e-05 +      a      +      +      +      +      +      +      + 
  2.400e-01 -7.31e-05 +      +a     +      +      +      +      +      +      + 
  2.500e-01 -7.28e-05 +      +a     +      +      +      +      +      +      + 
  2.600e-01 -7.26e-05 +      +a     +      +      +      +      +      +      + 
  2.700e-01 -7.23e-05 +      +a     +      +      +      +      +      +      + 
  2.800e-01 -7.20e-05 +      +a     +      +      +      +      +      +      + 
  2.900e-01 -7.17e-05 +      +a     +      +      +      +      +      +      + 
  3.000e-01 -7.14e-05-+------+a-----+------+------+------+------+------+------+-
  3.100e-01 -7.10e-05 +      +a     +      +      +      +      +      +      + 
  3.200e-01 -7.07e-05 +      +a     +      +      +      +      +      +      + 
  3.300e-01 -7.04e-05 +      +a     +      +      +      +      +      +      + 
  3.400e-01 -7.01e-05 +      +a     +      +      +      +      +      +      + 
  3.500e-01 -6.97e-05 +      +a     +      +      +      +      +      +      + 
  3.600e-01 -6.94e-05 +      + a    +      +      +      +      +      +      + 
  3.700e-01 -6.90e-05 +      + a    +      +      +      +      +      +      + 
  3.800e-01 -6.87e-05 +      + a    +      +      +      +      +      +      + 
  3.900e-01 -6.83e-05 +      + a    +      +      +      +      +      +      + 
  4.000e-01 -6.79e-05-+------+-a----+------+------+------+------+------+------+-
  4.100e-01 -6.75e-05 +      + a    +      +      +      +      +      +      + 
  4.200e-01 -6.71e-05 +      + a    +      +      +      +      +      +      + 
  4.300e-01 -6.67e-05 +      + a    +      +      +      +      +      +      + 
  4.400e-01 -6.62e-05 +      + a    +      +      +      +      +      +      + 
  4.500e-01 -6.57e-05 +      +  a   +      +      +      +      +      +      + 
  4.600e-01 -6.53e-05 +      +  a   +      +      +      +      +      +      + 
  4.700e-01 -6.48e-05 +      +  a   +      +      +      +      +      +      + 
  4.800e-01 -6.42e-05 +      +  a   +      +      +      +      +      +      + 
  4.900e-01 -6.37e-05 +      +  a   +      +      +      +      +      +      + 
  5.000e-01 -6.31e-05-+------+--a---+------+------+------+------+------+------+-
  5.100e-01 -6.25e-05 +      +  a   +      +      +      +      +      +      + 
  5.200e-01 -6.19e-05 +      +   a  +      +      +      +      +      +      + 
  5.300e-01 -6.13e-05 +      +   a  +      +      +      +      +      +      + 
  5.400e-01 -6.06e-05 +      +   a  +      +      +      +      +      +      + 
  5.500e-01 -5.99e-05 +      +   a  +      +      +      +      +      +      + 
  5.600e-01 -5.92e-05 +      +   a  +      +      +      +      +      +      + 
  5.700e-01 -5.85e-05 +      +    a +      +      +      +      +      +      + 
  5.800e-01 -5.77e-05 +      +    a +      +      +      +      +      +      + 
  5.900e-01 -5.69e-05 +      +    a +      +      +      +      +      +      + 
  6.000e-01 -5.61e-05-+------+----a-+------+------+------+------+------+------+-
  6.100e-01 -5.52e-05 +      +     a+      +      +      +      +      +      + 
  6.200e-01 -5.43e-05 +      +     a+      +      +      +      +      +      + 
  6.300e-01 -5.34e-05 +      +     a+      +      +      +      +      +      + 
  6.400e-01 -5.25e-05 +      +     a+      +      +      +      +      +      + 
  6.500e-01 -5.15e-05 +      +      a      +      +      +      +      +      + 
  6.600e-01 -5.06e-05 +      +      a      +      +      +      +      +      + 
  6.700e-01 -4.95e-05 +      +      a      +      +      +      +      +      + 
  6.800e-01 -4.85e-05 +      +      a      +      +      +      +      +      + 
  6.900e-01 -4.74e-05 +      +      +a     +      +      +      +      +      + 
  7.000e-01 -4.63e-05-+------+------+a-----+------+------+------+------+------+-
  7.100e-01 -4.52e-05 +      +      +a     +      +      +      +      +      + 
  7.200e-01 -4.40e-05 +      +      + a    +      +      +      +      +      + 
  7.300e-01 -4.28e-05 +      +      + a    +      +      +      +      +      + 
  7.400e-01 -4.16e-05 +      +      + a    +      +      +      +      +      + 
  7.500e-01 -4.03e-05 +      +      +  a   +      +      +      +      +      + 
  7.600e-01 -3.90e-05 +      +      +  a   +      +      +      +      +      + 
  7.700e-01 -3.77e-05 +      +      +  a   +      +      +      +      +      + 
  7.800e-01 -3.63e-05 +      +      +   a  +      +      +      +      +      + 
  7.900e-01 -3.50e-05 +      +      +   a  +      +      +      +      +      + 
  8.000e-01 -3.35e-05-+------+------+----a-+------+------+------+------+------+-
  8.100e-01 -3.21e-05 +      +      +    a +      +      +      +      +      + 
  8.200e-01 -3.06e-05 +      +      +    a +      +      +      +      +      + 
  8.300e-01 -2.91e-05 +      +      +     a+      +      +      +      +      + 
  8.400e-01 -2.75e-05 +      +      +     a+      +      +      +      +      + 
  8.500e-01 -2.60e-05 +      +      +      a      +      +      +      +      + 
  8.600e-01 -2.43e-05 +      +      +      a      +      +      +      +      + 
  8.700e-01 -2.27e-05 +      +      +      +a     +      +      +      +      + 
  8.800e-01 -2.10e-05 +      +      +      +a     +      +      +      +      + 
  8.900e-01 -1.93e-05 +      +      +      + a    +      +      +      +      + 
  9.000e-01 -1.75e-05-+------+------+------+-a----+------+------+------+------+-
  9.100e-01 -1.57e-05 +      +      +      +  a   +      +      +      +      + 
  9.200e-01 -1.39e-05 +      +      +      +  a   +      +      +      +      + 
  9.300e-01 -1.20e-05 +      +      +      +   a  +      +      +      +      + 
  9.400e-01 -1.01e-05 +      +      +      +   a  +      +      +      +      + 
  9.500e-01 -8.16e-06 +      +      +      +    a +      +      +      +      + 
  9.600e-01 -6.18e-06 +      +      +      +    a +      +      +      +      + 
  9.700e-01 -4.16e-06 +      +      +      +     a+      +      +      +      + 
  9.800e-01 -2.10e-06 +      +      +      +     a+      +      +      +      + 
  9.900e-01  2.55e-10 +      +      +      +      a      +      +      +      + 
                      +             +             +             +             + 

b


          ***** job concluded
1****** HSPICE -- I-2013.12-SP1 64-BIT (Feb 25 2014) RHEL64 ******              
 ******  
 ** generated for: hspiced

  ******  job statistics summary tnom=  25.000 temp= 125.000 *****
  
  
 ******  Machine Information  ******
 CPU:
 model name	: Intel(R) Xeon(R) CPU E5-2690 v2 @ 3.00GHz
 cpu MHz	: 3011.246
  
 OS:
 Linux version 2.6.32-696.1.1.el6.x86_64 (mockbuild@c1bm.rdu2.centos.org) (gcc version 4.4.7 20120313 (Red Hat 4.4.7-18) (GCC) ) #1 SMP Tue Apr 11 17:13:24 UTC 2017


  ******  HSPICE Threads Information  ******

  Command Line Threads Count :     1
  Available CPU Count        :    40
  Actual Threads Count       :     1


  ******  Circuit Statistics  ******
  # nodes       =      13 # elements   =       6
  # resistors   =       0 # capacitors =       0 # inductors   =       0
  # mutual_inds =       0 # vccs       =       0 # vcvs        =       0
  # cccs        =       0 # ccvs       =       0 # volt_srcs   =       4
  # curr_srcs   =       0 # diodes     =       0 # bjts        =       0
  # jfets       =       0 # mosfets    =       2 # U elements  =       0
  # T elements  =       0 # W elements =       0 # B elements  =       0
  # S elements  =       0 # P elements =       0 # va device   =       0
  # vector_srcs =       0 # N elements =       0


  ******  Runtime Statistics (seconds)  ******

  analysis           time    # points   tot. iter  conv.iter
  op point           0.00           1           0
  dc sweep           0.00         100         202
  readin             0.01
  errchk             0.00
  setup              0.00
  output             0.00


           peak memory used        173.32 megabytes
           total cpu time            0.02 seconds
           total elapsed time        0.98 seconds
           job started at     00:49:33 05/17/2020
           job ended   at     00:49:34 05/17/2020


  **warning** (corner.lib:24) Parameter vdd="0.99" overrides previously declared parameter vdd (corner.lib:3).
1****** HSPICE -- I-2013.12-SP1 64-BIT (Feb 25 2014) RHEL64 ******              
 ******  
 

  ******  mos   model parameters tnom=  25.000 temp=  25.000 *****
 Model Name: nmos_vtl  
 BSIM4 Model (Level 54)
    MOBMOD = 0
    BINUNIT = 1
    PARAMCHK = 1
    CAPMOD = 2
    DIOMOD = 1
    RDSMOD = 0
    TRNQSMOD = 0
    ACNQSMOD = 0
    RBODYMOD = 1
    RGATEMOD = 1
    PERMOD = 1
    GEOMOD = 1
    RGEOMOD = 0
    FNOIMOD = 1
    TNOIMOD = 0
    IGCMOD = 1
    IGBMOD = 1
    STIMOD = 0
    VERSION =      4 
    TOXREF = 1.14e-09 
    TOXE = 1.14e-09 
    TOXP =  1e-09 
    TOXM = 1.14e-09 
    DTOX = 1.4e-10 
    EPSROX =    3.9 
    CDSC =      0 
    CDSCB =      0 
    CDSCD =      0 
    CIT =      0 
    NFACTOR =    2.1 
    XJ = 1.98e-08 
    VSAT = 1.48e+05 
    A0 =      1 
    AGS =      0 
    A1 =      0 
    A2 =      1 
    AT = 3.3e+04 
    KETA =   0.04 
    NSUB =  6e+16 
    NDEP = 3.4e+18 
    NSD =  2e+20 
    NGATE =  3e+20 
    GAMMA1 =      0 
    GAMMA2 =      0 
    VBX =      0 
    VBM =     -3 
    XT = 1.55e-07 
    K1 =    0.4 
    KT1 =  -0.11 
    KT1L =      0 
    KT2 =  0.022 
    K2 =      0 
    K3 =      0 
    K3B =      0 
    LPE0 =      0 
    LPEB =      0 
    DVTP0 =  1e-10 
    DVTP1 =    0.1 
    W0 = 2.5e-06 
    DVT0 =      1 
    DVT1 =      2 
    DVT2 =      0 
    DVT0W =      0 
    DVT1W =      0 
    DVT2W =      0 
    DROUT =    0.5 
    DSUB =    0.1 
    VTH0 =  0.322 
    EU =   1.67 
    UA =  6e-10 
    UA1 = 4.31e-09 
    UB = 1.2e-18 
    UB1 = 7.61e-18 
    UC =      0 
    UC1 = -5.6e-11 
    U0 =  0.045 
    UTE =   -1.5 
    VOFF =  -0.13 
    VOFFL =      0 
    MINV =   0.05 
    FPROUT =    0.2 
    PDITS =   0.08 
    PDITSD =   0.23 
    PDITSL = 2.3e+06 
    DELTA =   0.01 
    RDSW =    155 
    RDSWMIN =      0 
    RDWMIN =      0 
    RSWMIN =      0 
    RDW =     80 
    RSW =     80 
    PRWG =      0 
    PRWB =      0 
    PRT =      0 
    ETA0 =  0.006 
    ETAB =      0 
    PCLM =   0.02 
    PDIBLC1 =  0.001 
    PDIBLC2 =  0.001 
    PDIBLCB = -0.005 
    PSCBE1 = 8.14e+08 
    PSCBE2 =  1e-07 
    PVAG =  1e-20 
    WR =      1 
    DWG =      0 
    DWB =      0 
    XW =      0 
    XWREF =      0 
    XL = -2e-08 
    XLREF = -2e-08 
    B0 =      0 
    B1 =      0 
    ALPHA0 =  0.074 
    ALPHA1 =  0.005 
    AGIDL = 0.0002 
    BGIDL = 2.1e+09 
    CGIDL = 0.0002 
    PHIN =      0 
    EGIDL =    0.8 
    AIGC =   0.02 
    BIGC = 0.0027 
    CIGC =  0.002 
    AIGSD =   0.02 
    BIGSD = 0.0027 
    CIGSD =  0.002 
    AIGBACC =  0.012 
    BIGBACC = 0.0028 
    CIGBACC =  0.002 
    AIGBINV =  0.014 
    BIGBINV =  0.004 
    CIGBINV =  0.004 
    NIGC =      1 
    NIGBINV =      3 
    NIGBACC =      1 
    NTOX =      1 
    EIGBINV =    1.1 
    PIGCD =      1 
    POXEDGE =      1 
    XRCRG1 =     12 
    TNOIA =    1.5 
    TNOIB =    3.5 
    NTNOI =      1 
    XRCRG2 =      5 
    BETA0 =     30 
    IJTHDFWD =   0.01 
    IJTHSFWD =   0.01 
    IJTHDREV =  0.001 
    IJTHSREV =  0.001 
    XJBVD =      1 
    XJBVS =      1 
    BVD =     10 
    BVS =     10 
    VFB =  -0.55 
    GBMIN =  1e-10 
    RBDB =     15 
    RBPB =      5 
    RBSB =     15 
    RBPS =     15 
    RBPD =     15 
    CGSL = 2.653e-10 
    CGDL = 2.653e-10 
    CKAPPAS =   0.03 
    CKAPPAD =   0.03 
    CF = 1.289e-10 
    CLC =  1e-07 
    CLE =    0.6 
    DWC =  5e-09 
    DLC = 3.75e-09 
    DLCIG = 3.75e-09 
    DWJ =      0 
    VFBCV =     -1 
    ACDE =      1 
    MOIN =     15 
    NOFF =    0.9 
    VOFFCV =   0.02 
    DMCG =      0 
    DMCI =      0 
    DMDG =      0 
    DMCGT =      0 
    XGW =      0 
    XGL =      0 
    RSHG =    0.4 
    NGCON =      1 
    TCJ =  0.001 
    TPB =  0.005 
    TCJSW =  0.001 
    TPBSW =  0.005 
    TCJSWG =  0.001 
    TPBSWG =  0.005 
    SK0 =      0 
    SK1 =      0 
    SK2 =      0 
    SL =  2e-06 
    SW =  2e-06 
    K =      0 
    TNOM =  300.1 
    CGSO = 1.1e-10 
    CGDO = 1.1e-10 
    CGBO = 2.56e-11 
    XPART =      0 
    RSH =      5 
    JSS = 0.0001 
    JSWS =  1e-11 
    JSWGS =  1e-10 
    PBS =      1 
    MJS =    0.5 
    PBSWS =      1 
    MJSWS =   0.33 
    CJS = 0.0005 
    CJSWS =  5e-10 
    NJS =      1 
    PBSWGS =      1 
    MJSWGS =   0.33 
    CJSWGS =  3e-10 
    XTIS =      3 
    JSD = 0.0001 
    JSWD =  1e-11 
    JSWGD =  1e-10 
    PBD =      1 
    MJD =    0.5 
    PBSWD =      1 
    MJSWD =   0.33 
    CJD = 0.0005 
    CJSWD =  5e-10 
    NJD =      1 
    PBSWGD =      1 
    MJSWGD =   0.33 
    CJSWGD =  5e-10 
    XTID =      3 
    LMLT =      1 
    WMLT =      1 
    LINT = 3.75e-09 
    LL =      0 
    LLC =      0 
    LLN =      1 
    LW =      0 
    LWC =      0 
    LWN =      1 
    LWL =      0 
    LWLC =      0 
    LMIN =      0 
    LMAX =      1 
    WINT =  5e-09 
    WL =      0 
    WLC =      0 
    WLN =      1 
    WW =      0 
    WWC =      0 
    WWN =      1 
    WWL =      0 
    WWLC =      0 
    WMIN =      0 
    WMAX =      1 
    NOIA = 6.25e+41 
    NOIB = 3.125e+26 
    NOIC = 8.75e+09 
    EM = 4.1e+07 
    EF =      1 
    AF =      1 
    KF =      0 
    TRS =      0 
    TRD =      0 
 Model Name: pmos_vtl  
 BSIM4 Model (Level 54)
    MOBMOD = 0
    BINUNIT = 1
    PARAMCHK = 1
    CAPMOD = 2
    DIOMOD = 1
    RDSMOD = 0
    TRNQSMOD = 0
    ACNQSMOD = 0
    RBODYMOD = 1
    RGATEMOD = 1
    PERMOD = 1
    GEOMOD = 1
    RGEOMOD = 0
    FNOIMOD = 1
    TNOIMOD = 0
    IGCMOD = 1
    IGBMOD = 1
    STIMOD = 0
    VERSION =      4 
    TOXREF = 1.3e-09 
    TOXE = 1.3e-09 
    TOXP =  1e-09 
    TOXM = 1.3e-09 
    DTOX =  3e-10 
    EPSROX =    3.9 
    CDSC =      0 
    CDSCB =      0 
    CDSCD =      0 
    CIT =      0 
    NFACTOR =   2.22 
    XJ = 1.98e-08 
    VSAT = 6.9e+04 
    A0 =      1 
    AGS =  1e-20 
    A1 =      0 
    A2 =      1 
    AT = 3.3e+04 
    KETA = -0.047 
    NSUB =  6e+16 
    NDEP = 2.44e+18 
    NSD =  2e+20 
    NGATE =  2e+20 
    GAMMA1 =      0 
    GAMMA2 =      0 
    VBX =      0 
    VBM =     -3 
    XT = 1.55e-07 
    K1 =    0.4 
    KT1 =  -0.11 
    KT1L =      0 
    KT2 =  0.022 
    K2 =  -0.01 
    K3 =      0 
    K3B =      0 
    LPE0 =      0 
    LPEB =      0 
    DVTP0 =  1e-11 
    DVTP1 =   0.05 
    W0 = 2.5e-06 
    DVT0 =      1 
    DVT1 =      2 
    DVT2 = -0.032 
    DVT0W =      0 
    DVT1W =      0 
    DVT2W =      0 
    DROUT =   0.56 
    DSUB =    0.1 
    VTH0 = -0.3271 
    EU =      1 
    UA =  2e-09 
    UA1 = 4.31e-09 
    UB =  5e-19 
    UB1 = 7.61e-18 
    UC =      0 
    UC1 = -5.6e-11 
    U0 =   0.02 
    UTE =   -1.5 
    VOFF = -0.126 
    VOFFL =      0 
    MINV =   0.05 
    FPROUT =    0.2 
    PDITS =   0.08 
    PDITSD =   0.23 
    PDITSL = 2.3e+06 
    DELTA =   0.01 
    RDSW =    155 
    RDSWMIN =      0 
    RDWMIN =      0 
    RSWMIN =      0 
    RDW =     75 
    RSW =     75 
    PRWG =      0 
    PRWB =      0 
    PRT =      0 
    ETA0 = 0.0055 
    ETAB =      0 
    PCLM =   0.12 
    PDIBLC1 =  0.001 
    PDIBLC2 =  0.001 
    PDIBLCB = 3.4e-08 
    PSCBE1 = 8.14e+08 
    PSCBE2 = 9.58e-07 
    PVAG =  1e-20 
    WR =      1 
    DWG =      0 
    DWB =      0 
    XW =      0 
    XWREF =      0 
    XL = -2e-08 
    XLREF = -2e-08 
    B0 =      0 
    B1 =      0 
    ALPHA0 =  0.074 
    ALPHA1 =  0.005 
    AGIDL = 0.0002 
    BGIDL = 2.1e+09 
    CGIDL = 0.0002 
    PHIN =      0 
    EGIDL =    0.8 
    AIGC = 0.01069 
    BIGC = 0.001261 
    CIGC = 0.0008 
    AIGSD = 0.01069 
    BIGSD = 0.001261 
    CIGSD = 0.0008 
    AIGBACC =  0.012 
    BIGBACC = 0.0028 
    CIGBACC =  0.002 
    AIGBINV =  0.014 
    BIGBINV =  0.004 
    CIGBINV =  0.004 
    NIGC =      1 
    NIGBINV =      3 
    NIGBACC =      1 
    NTOX =      1 
    EIGBINV =    1.1 
    PIGCD =      1 
    POXEDGE =      1 
    XRCRG1 =     12 
    TNOIA =    1.5 
    TNOIB =    3.5 
    NTNOI =      1 
    XRCRG2 =      5 
    BETA0 =     30 
    IJTHDFWD =   0.01 
    IJTHSFWD =   0.01 
    IJTHDREV =  0.001 
    IJTHSREV =  0.001 
    XJBVD =      1 
    XJBVS =      1 
    BVD =     10 
    BVS =     10 
    VFB =   0.55 
    GBMIN =  1e-10 
    RBDB =     15 
    RBPB =      5 
    RBSB =     15 
    RBPS =     15 
    RBPD =     15 
    CGSL = 2.653e-10 
    CGDL = 2.653e-10 
    CKAPPAS =   0.03 
    CKAPPAD =   0.03 
    CF = 1.26e-10 
    CLC =  1e-07 
    CLE =    0.6 
    DWC =  5e-09 
    DLC = 3.225e-09 
    DLCIG = 3.225e-09 
    DWJ =      0 
    VFBCV =     -1 
    ACDE =      1 
    MOIN =     15 
    NOFF =    0.9 
    VOFFCV =   0.02 
    DMCG =      0 
    DMCI =      0 
    DMDG =      0 
    DMCGT =      0 
    XGW =      0 
    XGL =      0 
    RSHG =    0.4 
    NGCON =      1 
    TCJ =  0.001 
    TPB =  0.005 
    TCJSW =  0.001 
    TPBSW =  0.005 
    TCJSWG =  0.001 
    TPBSWG =  0.005 
    SK0 =      0 
    SK1 =      0 
    SK2 =      0 
    SL =  2e-06 
    SW =  2e-06 
    K =      0 
    TNOM =  300.1 
    CGSO = 1.1e-10 
    CGDO = 1.1e-10 
    CGBO = 2.56e-11 
    XPART =      0 
    RSH =      5 
    JSS = 0.0001 
    JSWS =  1e-11 
    JSWGS =  1e-10 
    PBS =      1 
    MJS =    0.5 
    PBSWS =      1 
    MJSWS =   0.33 
    CJS = 0.0005 
    CJSWS =  5e-10 
    NJS =      1 
    PBSWGS =      1 
    MJSWGS =   0.33 
    CJSWGS =  3e-10 
    XTIS =      3 
    JSD = 0.0001 
    JSWD =  1e-11 
    JSWGD =  1e-10 
    PBD =      1 
    MJD =    0.5 
    PBSWD =      1 
    MJSWD =   0.33 
    CJD = 0.0005 
    CJSWD =  5e-10 
    NJD =      1 
    PBSWGD =      1 
    MJSWGD =   0.33 
    CJSWGD =  5e-10 
    XTID =      3 
    LMLT =      1 
    WMLT =      1 
    LINT = 3.225e-09 
    LL =      0 
    LLC =      0 
    LLN =      1 
    LW =      0 
    LWC =      0 
    LWN =      1 
    LWL =      0 
    LWLC =      0 
    LMIN =      0 
    LMAX =      1 
    WINT =  5e-09 
    WL =      0 
    WLC =      0 
    WLN =      1 
    WW =      0 
    WWC =      0 
    WWN =      1 
    WWL =      0 
    WWLC =      0 
    WMIN =      0 
    WMAX =      1 
    NOIA = 6.188e+40 
    NOIB = 1.5e+25 
    NOIC = 8.75e+09 
    EM = 4.1e+07 
    EF =      1 
    AF =      1 
    KF =      0 
    TRS =      0 
    TRD =      0 
  
  
      
 **info** set option symb=1 internally to help for convergence.
 *****************************************************************
 ******  option summary
 ******
 runlvl  = 3         bypass  = 2         
  
 ion_nmos= 6.8060e-05
 ion_pmos=-7.9372e-05

a


      volt       i(m0))
 (a       )    -5.000e-05     0.000e+00     5.000e-05     1.000e-04    1.500e-04
                      +             +             +             +             + 
  0.000e+00 -1.36e-10-+------+------a------+------+------+------+------+------+-
  1.000e-02  1.79e-06 +      +      +a     +      +      +      +      +      + 
  2.000e-02  3.55e-06 +      +      +a     +      +      +      +      +      + 
  3.000e-02  5.29e-06 +      +      +a     +      +      +      +      +      + 
  4.000e-02  6.99e-06 +      +      + a    +      +      +      +      +      + 
  5.000e-02  8.67e-06 +      +      + a    +      +      +      +      +      + 
  6.000e-02  1.03e-05 +      +      +  a   +      +      +      +      +      + 
  7.000e-02  1.19e-05 +      +      +  a   +      +      +      +      +      + 
  8.000e-02  1.35e-05 +      +      +   a  +      +      +      +      +      + 
  9.000e-02  1.51e-05 +      +      +   a  +      +      +      +      +      + 
  1.000e-01  1.66e-05-+------+------+----a-+------+------+------+------+------+-
  1.100e-01  1.82e-05 +      +      +    a +      +      +      +      +      + 
  1.200e-01  1.96e-05 +      +      +    a +      +      +      +      +      + 
  1.300e-01  2.11e-05 +      +      +     a+      +      +      +      +      + 
  1.400e-01  2.25e-05 +      +      +     a+      +      +      +      +      + 
  1.500e-01  2.39e-05 +      +      +      a      +      +      +      +      + 
  1.600e-01  2.53e-05 +      +      +      a      +      +      +      +      + 
  1.700e-01  2.67e-05 +      +      +      a      +      +      +      +      + 
  1.800e-01  2.80e-05 +      +      +      +a     +      +      +      +      + 
  1.900e-01  2.93e-05 +      +      +      +a     +      +      +      +      + 
  2.000e-01  3.05e-05-+------+------+------+-a----+------+------+------+------+-
  2.100e-01  3.18e-05 +      +      +      + a    +      +      +      +      + 
  2.200e-01  3.30e-05 +      +      +      + a    +      +      +      +      + 
  2.300e-01  3.42e-05 +      +      +      +  a   +      +      +      +      + 
  2.400e-01  3.54e-05 +      +      +      +  a   +      +      +      +      + 
  2.500e-01  3.65e-05 +      +      +      +  a   +      +      +      +      + 
  2.600e-01  3.76e-05 +      +      +      +   a  +      +      +      +      + 
  2.700e-01  3.87e-05 +      +      +      +   a  +      +      +      +      + 
  2.800e-01  3.98e-05 +      +      +      +   a  +      +      +      +      + 
  2.900e-01  4.08e-05 +      +      +      +   a  +      +      +      +      + 
  3.000e-01  4.18e-05-+------+------+------+----a-+------+------+------+------+-
  3.100e-01  4.28e-05 +      +      +      +    a +      +      +      +      + 
  3.200e-01  4.37e-05 +      +      +      +    a +      +      +      +      + 
  3.300e-01  4.47e-05 +      +      +      +     a+      +      +      +      + 
  3.400e-01  4.56e-05 +      +      +      +     a+      +      +      +      + 
  3.500e-01  4.65e-05 +      +      +      +     a+      +      +      +      + 
  3.600e-01  4.73e-05 +      +      +      +     a+      +      +      +      + 
  3.700e-01  4.81e-05 +      +      +      +     a+      +      +      +      + 
  3.800e-01  4.89e-05 +      +      +      +      a      +      +      +      + 
  3.900e-01  4.97e-05 +      +      +      +      a      +      +      +      + 
  4.000e-01  5.05e-05-+------+------+------+------a------+------+------+------+-
  4.100e-01  5.12e-05 +      +      +      +      a      +      +      +      + 
  4.200e-01  5.19e-05 +      +      +      +      +a     +      +      +      + 
  4.300e-01  5.26e-05 +      +      +      +      +a     +      +      +      + 
  4.400e-01  5.32e-05 +      +      +      +      +a     +      +      +      + 
  4.500e-01  5.38e-05 +      +      +      +      +a     +      +      +      + 
  4.600e-01  5.44e-05 +      +      +      +      +a     +      +      +      + 
  4.700e-01  5.50e-05 +      +      +      +      +a     +      +      +      + 
  4.800e-01  5.55e-05 +      +      +      +      + a    +      +      +      + 
  4.900e-01  5.60e-05 +      +      +      +      + a    +      +      +      + 
  5.000e-01  5.65e-05-+------+------+------+------+-a----+------+------+------+-
  5.100e-01  5.70e-05 +      +      +      +      + a    +      +      +      + 
  5.200e-01  5.74e-05 +      +      +      +      + a    +      +      +      + 
  5.300e-01  5.78e-05 +      +      +      +      + a    +      +      +      + 
  5.400e-01  5.82e-05 +      +      +      +      + a    +      +      +      + 
  5.500e-01  5.86e-05 +      +      +      +      + a    +      +      +      + 
  5.600e-01  5.90e-05 +      +      +      +      +  a   +      +      +      + 
  5.700e-01  5.93e-05 +      +      +      +      +  a   +      +      +      + 
  5.800e-01  5.96e-05 +      +      +      +      +  a   +      +      +      + 
  5.900e-01  5.99e-05 +      +      +      +      +  a   +      +      +      + 
  6.000e-01  6.02e-05-+------+------+------+------+--a---+------+------+------+-
  6.100e-01  6.05e-05 +      +      +      +      +  a   +      +      +      + 
  6.200e-01  6.08e-05 +      +      +      +      +  a   +      +      +      + 
  6.300e-01  6.11e-05 +      +      +      +      +  a   +      +      +      + 
  6.400e-01  6.13e-05 +      +      +      +      +  a   +      +      +      + 
  6.500e-01  6.16e-05 +      +      +      +      +  a   +      +      +      + 
  6.600e-01  6.18e-05 +      +      +      +      +  a   +      +      +      + 
  6.700e-01  6.20e-05 +      +      +      +      +  a   +      +      +      + 
  6.800e-01  6.23e-05 +      +      +      +      +  a   +      +      +      + 
  6.900e-01  6.25e-05 +      +      +      +      +  a   +      +      +      + 
  7.000e-01  6.27e-05-+------+------+------+------+---a--+------+------+------+-
  7.100e-01  6.29e-05 +      +      +      +      +   a  +      +      +      + 
  7.200e-01  6.31e-05 +      +      +      +      +   a  +      +      +      + 
  7.300e-01  6.33e-05 +      +      +      +      +   a  +      +      +      + 
  7.400e-01  6.35e-05 +      +      +      +      +   a  +      +      +      + 
  7.500e-01  6.37e-05 +      +      +      +      +   a  +      +      +      + 
  7.600e-01  6.39e-05 +      +      +      +      +   a  +      +      +      + 
  7.700e-01  6.41e-05 +      +      +      +      +   a  +      +      +      + 
  7.800e-01  6.43e-05 +      +      +      +      +   a  +      +      +      + 
  7.900e-01  6.45e-05 +      +      +      +      +   a  +      +      +      + 
  8.000e-01  6.47e-05-+------+------+------+------+---a--+------+------+------+-
  8.100e-01  6.49e-05 +      +      +      +      +   a  +      +      +      + 
  8.200e-01  6.50e-05 +      +      +      +      +   a  +      +      +      + 
  8.300e-01  6.52e-05 +      +      +      +      +   a  +      +      +      + 
  8.400e-01  6.54e-05 +      +      +      +      +   a  +      +      +      + 
  8.500e-01  6.56e-05 +      +      +      +      +   a  +      +      +      + 
  8.600e-01  6.58e-05 +      +      +      +      +   a  +      +      +      + 
  8.700e-01  6.60e-05 +      +      +      +      +   a  +      +      +      + 
  8.800e-01  6.61e-05 +      +      +      +      +    a +      +      +      + 
  8.900e-01  6.63e-05 +      +      +      +      +    a +      +      +      + 
  9.000e-01  6.65e-05-+------+------+------+------+----a-+------+------+------+-
  9.100e-01  6.67e-05 +      +      +      +      +    a +      +      +      + 
  9.200e-01  6.68e-05 +      +      +      +      +    a +      +      +      + 
  9.300e-01  6.70e-05 +      +      +      +      +    a +      +      +      + 
  9.400e-01  6.72e-05 +      +      +      +      +    a +      +      +      + 
  9.500e-01  6.74e-05 +      +      +      +      +    a +      +      +      + 
  9.600e-01  6.75e-05 +      +      +      +      +    a +      +      +      + 
  9.700e-01  6.77e-05 +      +      +      +      +    a +      +      +      + 
  9.800e-01  6.79e-05 +      +      +      +      +    a +      +      +      + 
  9.900e-01  6.81e-05 +      +      +      +      +    a +      +      +      + 
                      +             +             +             +             + 

b


a


      volt       i(m1))
 (a       )    -1.000e-04    -5.000e-05     0.000e+00     5.000e-05    1.000e-04
                      +             +             +             +             + 
  0.000e+00 -7.94e-05-+-----a+------+------+------+------+------+------+------+-
  1.000e-02 -7.91e-05 +     a+      +      +      +      +      +      +      + 
  2.000e-02 -7.89e-05 +     a+      +      +      +      +      +      +      + 
  3.000e-02 -7.86e-05 +     a+      +      +      +      +      +      +      + 
  4.000e-02 -7.84e-05 +     a+      +      +      +      +      +      +      + 
  5.000e-02 -7.81e-05 +     a+      +      +      +      +      +      +      + 
  6.000e-02 -7.79e-05 +     a+      +      +      +      +      +      +      + 
  7.000e-02 -7.76e-05 +     a+      +      +      +      +      +      +      + 
  8.000e-02 -7.74e-05 +     a+      +      +      +      +      +      +      + 
  9.000e-02 -7.71e-05 +     a+      +      +      +      +      +      +      + 
  1.000e-01 -7.69e-05-+-----a+------+------+------+------+------+------+------+-
  1.100e-01 -7.66e-05 +      a      +      +      +      +      +      +      + 
  1.200e-01 -7.64e-05 +      a      +      +      +      +      +      +      + 
  1.300e-01 -7.61e-05 +      a      +      +      +      +      +      +      + 
  1.400e-01 -7.58e-05 +      a      +      +      +      +      +      +      + 
  1.500e-01 -7.56e-05 +      a      +      +      +      +      +      +      + 
  1.600e-01 -7.53e-05 +      a      +      +      +      +      +      +      + 
  1.700e-01 -7.50e-05 +      a      +      +      +      +      +      +      + 
  1.800e-01 -7.48e-05 +      a      +      +      +      +      +      +      + 
  1.900e-01 -7.45e-05 +      a      +      +      +      +      +      +      + 
  2.000e-01 -7.42e-05-+------a------+------+------+------+------+------+------+-
  2.100e-01 -7.40e-05 +      a      +      +      +      +      +      +      + 
  2.200e-01 -7.37e-05 +      a      +      +      +      +      +      +      + 
  2.300e-01 -7.34e-05 +      a      +      +      +      +      +      +      + 
  2.400e-01 -7.31e-05 +      +a     +      +      +      +      +      +      + 
  2.500e-01 -7.28e-05 +      +a     +      +      +      +      +      +      + 
  2.600e-01 -7.26e-05 +      +a     +      +      +      +      +      +      + 
  2.700e-01 -7.23e-05 +      +a     +      +      +      +      +      +      + 
  2.800e-01 -7.20e-05 +      +a     +      +      +      +      +      +      + 
  2.900e-01 -7.17e-05 +      +a     +      +      +      +      +      +      + 
  3.000e-01 -7.14e-05-+------+a-----+------+------+------+------+------+------+-
  3.100e-01 -7.10e-05 +      +a     +      +      +      +      +      +      + 
  3.200e-01 -7.07e-05 +      +a     +      +      +      +      +      +      + 
  3.300e-01 -7.04e-05 +      +a     +      +      +      +      +      +      + 
  3.400e-01 -7.01e-05 +      +a     +      +      +      +      +      +      + 
  3.500e-01 -6.97e-05 +      +a     +      +      +      +      +      +      + 
  3.600e-01 -6.94e-05 +      + a    +      +      +      +      +      +      + 
  3.700e-01 -6.90e-05 +      + a    +      +      +      +      +      +      + 
  3.800e-01 -6.87e-05 +      + a    +      +      +      +      +      +      + 
  3.900e-01 -6.83e-05 +      + a    +      +      +      +      +      +      + 
  4.000e-01 -6.79e-05-+------+-a----+------+------+------+------+------+------+-
  4.100e-01 -6.75e-05 +      + a    +      +      +      +      +      +      + 
  4.200e-01 -6.71e-05 +      + a    +      +      +      +      +      +      + 
  4.300e-01 -6.67e-05 +      + a    +      +      +      +      +      +      + 
  4.400e-01 -6.62e-05 +      + a    +      +      +      +      +      +      + 
  4.500e-01 -6.57e-05 +      +  a   +      +      +      +      +      +      + 
  4.600e-01 -6.53e-05 +      +  a   +      +      +      +      +      +      + 
  4.700e-01 -6.48e-05 +      +  a   +      +      +      +      +      +      + 
  4.800e-01 -6.42e-05 +      +  a   +      +      +      +      +      +      + 
  4.900e-01 -6.37e-05 +      +  a   +      +      +      +      +      +      + 
  5.000e-01 -6.31e-05-+------+--a---+------+------+------+------+------+------+-
  5.100e-01 -6.25e-05 +      +  a   +      +      +      +      +      +      + 
  5.200e-01 -6.19e-05 +      +   a  +      +      +      +      +      +      + 
  5.300e-01 -6.13e-05 +      +   a  +      +      +      +      +      +      + 
  5.400e-01 -6.06e-05 +      +   a  +      +      +      +      +      +      + 
  5.500e-01 -5.99e-05 +      +   a  +      +      +      +      +      +      + 
  5.600e-01 -5.92e-05 +      +   a  +      +      +      +      +      +      + 
  5.700e-01 -5.85e-05 +      +    a +      +      +      +      +      +      + 
  5.800e-01 -5.77e-05 +      +    a +      +      +      +      +      +      + 
  5.900e-01 -5.69e-05 +      +    a +      +      +      +      +      +      + 
  6.000e-01 -5.61e-05-+------+----a-+------+------+------+------+------+------+-
  6.100e-01 -5.52e-05 +      +     a+      +      +      +      +      +      + 
  6.200e-01 -5.43e-05 +      +     a+      +      +      +      +      +      + 
  6.300e-01 -5.34e-05 +      +     a+      +      +      +      +      +      + 
  6.400e-01 -5.25e-05 +      +     a+      +      +      +      +      +      + 
  6.500e-01 -5.15e-05 +      +      a      +      +      +      +      +      + 
  6.600e-01 -5.06e-05 +      +      a      +      +      +      +      +      + 
  6.700e-01 -4.95e-05 +      +      a      +      +      +      +      +      + 
  6.800e-01 -4.85e-05 +      +      a      +      +      +      +      +      + 
  6.900e-01 -4.74e-05 +      +      +a     +      +      +      +      +      + 
  7.000e-01 -4.63e-05-+------+------+a-----+------+------+------+------+------+-
  7.100e-01 -4.52e-05 +      +      +a     +      +      +      +      +      + 
  7.200e-01 -4.40e-05 +      +      + a    +      +      +      +      +      + 
  7.300e-01 -4.28e-05 +      +      + a    +      +      +      +      +      + 
  7.400e-01 -4.16e-05 +      +      + a    +      +      +      +      +      + 
  7.500e-01 -4.03e-05 +      +      +  a   +      +      +      +      +      + 
  7.600e-01 -3.90e-05 +      +      +  a   +      +      +      +      +      + 
  7.700e-01 -3.77e-05 +      +      +  a   +      +      +      +      +      + 
  7.800e-01 -3.63e-05 +      +      +   a  +      +      +      +      +      + 
  7.900e-01 -3.50e-05 +      +      +   a  +      +      +      +      +      + 
  8.000e-01 -3.35e-05-+------+------+----a-+------+------+------+------+------+-
  8.100e-01 -3.21e-05 +      +      +    a +      +      +      +      +      + 
  8.200e-01 -3.06e-05 +      +      +    a +      +      +      +      +      + 
  8.300e-01 -2.91e-05 +      +      +     a+      +      +      +      +      + 
  8.400e-01 -2.75e-05 +      +      +     a+      +      +      +      +      + 
  8.500e-01 -2.60e-05 +      +      +      a      +      +      +      +      + 
  8.600e-01 -2.43e-05 +      +      +      a      +      +      +      +      + 
  8.700e-01 -2.27e-05 +      +      +      +a     +      +      +      +      + 
  8.800e-01 -2.10e-05 +      +      +      +a     +      +      +      +      + 
  8.900e-01 -1.93e-05 +      +      +      + a    +      +      +      +      + 
  9.000e-01 -1.75e-05-+------+------+------+-a----+------+------+------+------+-
  9.100e-01 -1.57e-05 +      +      +      +  a   +      +      +      +      + 
  9.200e-01 -1.39e-05 +      +      +      +  a   +      +      +      +      + 
  9.300e-01 -1.20e-05 +      +      +      +   a  +      +      +      +      + 
  9.400e-01 -1.01e-05 +      +      +      +   a  +      +      +      +      + 
  9.500e-01 -8.16e-06 +      +      +      +    a +      +      +      +      + 
  9.600e-01 -6.18e-06 +      +      +      +    a +      +      +      +      + 
  9.700e-01 -4.16e-06 +      +      +      +     a+      +      +      +      + 
  9.800e-01 -2.10e-06 +      +      +      +     a+      +      +      +      + 
  9.900e-01  2.55e-10 +      +      +      +      a      +      +      +      + 
                      +             +             +             +             + 

b


          ***** job concluded
1****** HSPICE -- I-2013.12-SP1 64-BIT (Feb 25 2014) RHEL64 ******              
 ******  
 

  ******  job statistics summary tnom=  25.000 temp= 125.000 *****
  
  
 ******  Machine Information  ******
 CPU:
 model name	: Intel(R) Xeon(R) CPU E5-2690 v2 @ 3.00GHz
 cpu MHz	: 3011.246
  
 OS:
 Linux version 2.6.32-696.1.1.el6.x86_64 (mockbuild@c1bm.rdu2.centos.org) (gcc version 4.4.7 20120313 (Red Hat 4.4.7-18) (GCC) ) #1 SMP Tue Apr 11 17:13:24 UTC 2017


  ******  HSPICE Threads Information  ******

  Command Line Threads Count :     1
  Available CPU Count        :    40
  Actual Threads Count       :     1


  ******  Circuit Statistics  ******
  # nodes       =      13 # elements   =       6
  # resistors   =       0 # capacitors =       0 # inductors   =       0
  # mutual_inds =       0 # vccs       =       0 # vcvs        =       0
  # cccs        =       0 # ccvs       =       0 # volt_srcs   =       4
  # curr_srcs   =       0 # diodes     =       0 # bjts        =       0
  # jfets       =       0 # mosfets    =       2 # U elements  =       0
  # T elements  =       0 # W elements =       0 # B elements  =       0
  # S elements  =       0 # P elements =       0 # va device   =       0
  # vector_srcs =       0 # N elements =       0


  ******  Runtime Statistics (seconds)  ******

  analysis           time    # points   tot. iter  conv.iter
  op point           0.00           1           0
  dc sweep           0.00         100         202
  readin             0.00
  errchk             0.00
  setup              0.00
  output             0.00


           peak memory used        174.30 megabytes
           total cpu time            0.01 seconds
           total elapsed time        0.01 seconds
           job started at     00:49:33 05/17/2020
           job ended   at     00:49:34 05/17/2020


  **warning** (corner.lib:24) Parameter vdd="0.99" overrides previously declared parameter vdd (corner.lib:3).
1****** HSPICE -- I-2013.12-SP1 64-BIT (Feb 25 2014) RHEL64 ******              
 ******  
 

  ******  mos   model parameters tnom=  25.000 temp=  25.000 *****
 Model Name: nmos_vtl  
 BSIM4 Model (Level 54)
    MOBMOD = 0
    BINUNIT = 1
    PARAMCHK = 1
    CAPMOD = 2
    DIOMOD = 1
    RDSMOD = 0
    TRNQSMOD = 0
    ACNQSMOD = 0
    RBODYMOD = 1
    RGATEMOD = 1
    PERMOD = 1
    GEOMOD = 1
    RGEOMOD = 0
    FNOIMOD = 1
    TNOIMOD = 0
    IGCMOD = 1
    IGBMOD = 1
    STIMOD = 0
    VERSION =      4 
    TOXREF = 1.1e-09 
    TOXE = 1.1e-09 
    TOXP =  1e-09 
    TOXM = 1.1e-09 
    DTOX =  1e-10 
    EPSROX =    3.9 
    CDSC =      0 
    CDSCB =      0 
    CDSCD =      0 
    CIT =      0 
    NFACTOR =    2.1 
    XJ = 1.9e-08 
    VSAT = 1.48e+05 
    A0 =      1 
    AGS =      0 
    A1 =      0 
    A2 =      1 
    AT = 3.3e+04 
    KETA =   0.04 
    NSUB =  6e+16 
    NDEP = 3.4e+18 
    NSD =  2e+20 
    NGATE =  3e+20 
    GAMMA1 =      0 
    GAMMA2 =      0 
    VBX =      0 
    VBM =     -3 
    XT = 1.55e-07 
    K1 =    0.4 
    KT1 =  -0.11 
    KT1L =      0 
    KT2 =  0.022 
    K2 =      0 
    K3 =      0 
    K3B =      0 
    LPE0 =      0 
    LPEB =      0 
    DVTP0 =  1e-10 
    DVTP1 =    0.1 
    W0 = 2.5e-06 
    DVT0 =      1 
    DVT1 =      2 
    DVT2 =      0 
    DVT0W =      0 
    DVT1W =      0 
    DVT2W =      0 
    DROUT =    0.5 
    DSUB =    0.1 
    VTH0 =  0.297 
    EU =   1.67 
    UA =  6e-10 
    UA1 = 4.31e-09 
    UB = 1.2e-18 
    UB1 = 7.61e-18 
    UC =      0 
    UC1 = -5.6e-11 
    U0 =  0.046 
    UTE =   -1.5 
    VOFF =  -0.13 
    VOFFL =      0 
    MINV =   0.05 
    FPROUT =    0.2 
    PDITS =   0.08 
    PDITSD =   0.23 
    PDITSL = 2.3e+06 
    DELTA =   0.01 
    RDSW =    155 
    RDSWMIN =      0 
    RDWMIN =      0 
    RSWMIN =      0 
    RDW =     80 
    RSW =     80 
    PRWG =      0 
    PRWB =      0 
    PRT =      0 
    ETA0 =  0.006 
    ETAB =      0 
    PCLM =   0.02 
    PDIBLC1 =  0.001 
    PDIBLC2 =  0.001 
    PDIBLCB = -0.005 
    PSCBE1 = 8.14e+08 
    PSCBE2 =  1e-07 
    PVAG =  1e-20 
    WR =      1 
    DWG =      0 
    DWB =      0 
    XW =      0 
    XWREF =      0 
    XL = -2e-08 
    XLREF = -2e-08 
    B0 =      0 
    B1 =      0 
    ALPHA0 =  0.074 
    ALPHA1 =  0.005 
    AGIDL = 0.0002 
    BGIDL = 2.1e+09 
    CGIDL = 0.0002 
    PHIN =      0 
    EGIDL =    0.8 
    AIGC =   0.02 
    BIGC = 0.0027 
    CIGC =  0.002 
    AIGSD =   0.02 
    BIGSD = 0.0027 
    CIGSD =  0.002 
    AIGBACC =  0.012 
    BIGBACC = 0.0028 
    CIGBACC =  0.002 
    AIGBINV =  0.014 
    BIGBINV =  0.004 
    CIGBINV =  0.004 
    NIGC =      1 
    NIGBINV =      3 
    NIGBACC =      1 
    NTOX =      1 
    EIGBINV =    1.1 
    PIGCD =      1 
    POXEDGE =      1 
    XRCRG1 =     12 
    TNOIA =    1.5 
    TNOIB =    3.5 
    NTNOI =      1 
    XRCRG2 =      5 
    BETA0 =     30 
    IJTHDFWD =   0.01 
    IJTHSFWD =   0.01 
    IJTHDREV =  0.001 
    IJTHSREV =  0.001 
    XJBVD =      1 
    XJBVS =      1 
    BVD =     10 
    BVS =     10 
    VFB =  -0.55 
    GBMIN =  1e-10 
    RBDB =     15 
    RBPB =      5 
    RBSB =     15 
    RBPS =     15 
    RBPD =     15 
    CGSL = 2.653e-10 
    CGDL = 2.653e-10 
    CKAPPAS =   0.03 
    CKAPPAD =   0.03 
    CF = 1.297e-10 
    CLC =  1e-07 
    CLE =    0.6 
    DWC =  5e-09 
    DLC = 4.275e-09 
    DLCIG = 4.275e-09 
    DWJ =      0 
    VFBCV =     -1 
    ACDE =      1 
    MOIN =     15 
    NOFF =    0.9 
    VOFFCV =   0.02 
    DMCG =      0 
    DMCI =      0 
    DMDG =      0 
    DMCGT =      0 
    XGW =      0 
    XGL =      0 
    RSHG =    0.4 
    NGCON =      1 
    TCJ =  0.001 
    TPB =  0.005 
    TCJSW =  0.001 
    TPBSW =  0.005 
    TCJSWG =  0.001 
    TPBSWG =  0.005 
    SK0 =      0 
    SK1 =      0 
    SK2 =      0 
    SL =  2e-06 
    SW =  2e-06 
    K =      0 
    TNOM =  300.1 
    CGSO = 1.1e-10 
    CGDO = 1.1e-10 
    CGBO = 2.56e-11 
    XPART =      0 
    RSH =      5 
    JSS = 0.0001 
    JSWS =  1e-11 
    JSWGS =  1e-10 
    PBS =      1 
    MJS =    0.5 
    PBSWS =      1 
    MJSWS =   0.33 
    CJS = 0.0005 
    CJSWS =  5e-10 
    NJS =      1 
    PBSWGS =      1 
    MJSWGS =   0.33 
    CJSWGS =  3e-10 
    XTIS =      3 
    JSD = 0.0001 
    JSWD =  1e-11 
    JSWGD =  1e-10 
    PBD =      1 
    MJD =    0.5 
    PBSWD =      1 
    MJSWD =   0.33 
    CJD = 0.0005 
    CJSWD =  5e-10 
    NJD =      1 
    PBSWGD =      1 
    MJSWGD =   0.33 
    CJSWGD =  5e-10 
    XTID =      3 
    LMLT =      1 
    WMLT =      1 
    LINT = 4.275e-09 
    LL =      0 
    LLC =      0 
    LLN =      1 
    LW =      0 
    LWC =      0 
    LWN =      1 
    LWL =      0 
    LWLC =      0 
    LMIN =      0 
    LMAX =      1 
    WINT =  5e-09 
    WL =      0 
    WLC =      0 
    WLN =      1 
    WW =      0 
    WWC =      0 
    WWN =      1 
    WWL =      0 
    WWLC =      0 
    WMIN =      0 
    WMAX =      1 
    NOIA = 6.25e+41 
    NOIB = 3.125e+26 
    NOIC = 8.75e+09 
    EM = 4.1e+07 
    EF =      1 
    AF =      1 
    KF =      0 
    TRS =      0 
    TRD =      0 
 Model Name: pmos_vtl  
 BSIM4 Model (Level 54)
    MOBMOD = 0
    BINUNIT = 1
    PARAMCHK = 1
    CAPMOD = 2
    DIOMOD = 1
    RDSMOD = 0
    TRNQSMOD = 0
    ACNQSMOD = 0
    RBODYMOD = 1
    RGATEMOD = 1
    PERMOD = 1
    GEOMOD = 1
    RGEOMOD = 0
    FNOIMOD = 1
    TNOIMOD = 0
    IGCMOD = 1
    IGBMOD = 1
    STIMOD = 0
    VERSION =      4 
    TOXREF = 1.3e-09 
    TOXE = 1.3e-09 
    TOXP =  1e-09 
    TOXM = 1.3e-09 
    DTOX =  3e-10 
    EPSROX =    3.9 
    CDSC =      0 
    CDSCB =      0 
    CDSCD =      0 
    CIT =      0 
    NFACTOR =   2.22 
    XJ = 1.98e-08 
    VSAT = 6.9e+04 
    A0 =      1 
    AGS =  1e-20 
    A1 =      0 
    A2 =      1 
    AT = 3.3e+04 
    KETA = -0.047 
    NSUB =  6e+16 
    NDEP = 2.44e+18 
    NSD =  2e+20 
    NGATE =  2e+20 
    GAMMA1 =      0 
    GAMMA2 =      0 
    VBX =      0 
    VBM =     -3 
    XT = 1.55e-07 
    K1 =    0.4 
    KT1 =  -0.11 
    KT1L =      0 
    KT2 =  0.022 
    K2 =  -0.01 
    K3 =      0 
    K3B =      0 
    LPE0 =      0 
    LPEB =      0 
    DVTP0 =  1e-11 
    DVTP1 =   0.05 
    W0 = 2.5e-06 
    DVT0 =      1 
    DVT1 =      2 
    DVT2 = -0.032 
    DVT0W =      0 
    DVT1W =      0 
    DVT2W =      0 
    DROUT =   0.56 
    DSUB =    0.1 
    VTH0 = -0.3271 
    EU =      1 
    UA =  2e-09 
    UA1 = 4.31e-09 
    UB =  5e-19 
    UB1 = 7.61e-18 
    UC =      0 
    UC1 = -5.6e-11 
    U0 =   0.02 
    UTE =   -1.5 
    VOFF = -0.126 
    VOFFL =      0 
    MINV =   0.05 
    FPROUT =    0.2 
    PDITS =   0.08 
    PDITSD =   0.23 
    PDITSL = 2.3e+06 
    DELTA =   0.01 
    RDSW =    155 
    RDSWMIN =      0 
    RDWMIN =      0 
    RSWMIN =      0 
    RDW =     75 
    RSW =     75 
    PRWG =      0 
    PRWB =      0 
    PRT =      0 
    ETA0 = 0.0055 
    ETAB =      0 
    PCLM =   0.12 
    PDIBLC1 =  0.001 
    PDIBLC2 =  0.001 
    PDIBLCB = 3.4e-08 
    PSCBE1 = 8.14e+08 
    PSCBE2 = 9.58e-07 
    PVAG =  1e-20 
    WR =      1 
    DWG =      0 
    DWB =      0 
    XW =      0 
    XWREF =      0 
    XL = -2e-08 
    XLREF = -2e-08 
    B0 =      0 
    B1 =      0 
    ALPHA0 =  0.074 
    ALPHA1 =  0.005 
    AGIDL = 0.0002 
    BGIDL = 2.1e+09 
    CGIDL = 0.0002 
    PHIN =      0 
    EGIDL =    0.8 
    AIGC = 0.01069 
    BIGC = 0.001261 
    CIGC = 0.0008 
    AIGSD = 0.01069 
    BIGSD = 0.001261 
    CIGSD = 0.0008 
    AIGBACC =  0.012 
    BIGBACC = 0.0028 
    CIGBACC =  0.002 
    AIGBINV =  0.014 
    BIGBINV =  0.004 
    CIGBINV =  0.004 
    NIGC =      1 
    NIGBINV =      3 
    NIGBACC =      1 
    NTOX =      1 
    EIGBINV =    1.1 
    PIGCD =      1 
    POXEDGE =      1 
    XRCRG1 =     12 
    TNOIA =    1.5 
    TNOIB =    3.5 
    NTNOI =      1 
    XRCRG2 =      5 
    BETA0 =     30 
    IJTHDFWD =   0.01 
    IJTHSFWD =   0.01 
    IJTHDREV =  0.001 
    IJTHSREV =  0.001 
    XJBVD =      1 
    XJBVS =      1 
    BVD =     10 
    BVS =     10 
    VFB =   0.55 
    GBMIN =  1e-10 
    RBDB =     15 
    RBPB =      5 
    RBSB =     15 
    RBPS =     15 
    RBPD =     15 
    CGSL = 2.653e-10 
    CGDL = 2.653e-10 
    CKAPPAS =   0.03 
    CKAPPAD =   0.03 
    CF = 1.26e-10 
    CLC =  1e-07 
    CLE =    0.6 
    DWC =  5e-09 
    DLC = 3.225e-09 
    DLCIG = 3.225e-09 
    DWJ =      0 
    VFBCV =     -1 
    ACDE =      1 
    MOIN =     15 
    NOFF =    0.9 
    VOFFCV =   0.02 
    DMCG =      0 
    DMCI =      0 
    DMDG =      0 
    DMCGT =      0 
    XGW =      0 
    XGL =      0 
    RSHG =    0.4 
    NGCON =      1 
    TCJ =  0.001 
    TPB =  0.005 
    TCJSW =  0.001 
    TPBSW =  0.005 
    TCJSWG =  0.001 
    TPBSWG =  0.005 
    SK0 =      0 
    SK1 =      0 
    SK2 =      0 
    SL =  2e-06 
    SW =  2e-06 
    K =      0 
    TNOM =  300.1 
    CGSO = 1.1e-10 
    CGDO = 1.1e-10 
    CGBO = 2.56e-11 
    XPART =      0 
    RSH =      5 
    JSS = 0.0001 
    JSWS =  1e-11 
    JSWGS =  1e-10 
    PBS =      1 
    MJS =    0.5 
    PBSWS =      1 
    MJSWS =   0.33 
    CJS = 0.0005 
    CJSWS =  5e-10 
    NJS =      1 
    PBSWGS =      1 
    MJSWGS =   0.33 
    CJSWGS =  3e-10 
    XTIS =      3 
    JSD = 0.0001 
    JSWD =  1e-11 
    JSWGD =  1e-10 
    PBD =      1 
    MJD =    0.5 
    PBSWD =      1 
    MJSWD =   0.33 
    CJD = 0.0005 
    CJSWD =  5e-10 
    NJD =      1 
    PBSWGD =      1 
    MJSWGD =   0.33 
    CJSWGD =  5e-10 
    XTID =      3 
    LMLT =      1 
    WMLT =      1 
    LINT = 3.225e-09 
    LL =      0 
    LLC =      0 
    LLN =      1 
    LW =      0 
    LWC =      0 
    LWN =      1 
    LWL =      0 
    LWLC =      0 
    LMIN =      0 
    LMAX =      1 
    WINT =  5e-09 
    WL =      0 
    WLC =      0 
    WLN =      1 
    WW =      0 
    WWC =      0 
    WWN =      1 
    WWL =      0 
    WWLC =      0 
    WMIN =      0 
    WMAX =      1 
    NOIA = 6.188e+40 
    NOIB = 1.5e+25 
    NOIC = 8.75e+09 
    EM = 4.1e+07 
    EF =      1 
    AF =      1 
    KF =      0 
    TRS =      0 
    TRD =      0 
  
  
      
 **info** set option symb=1 internally to help for convergence.
 *****************************************************************
 ******  option summary
 ******
 runlvl  = 3         bypass  = 2         
  
 ion_nmos= 7.4075e-05
 ion_pmos=-7.9372e-05

a


      volt       i(m0))
 (a       )    -5.000e-05     0.000e+00     5.000e-05     1.000e-04    1.500e-04
                      +             +             +             +             + 
  0.000e+00 -2.62e-10-+------+------a------+------+------+------+------+------+-
  1.000e-02  1.90e-06 +      +      +a     +      +      +      +      +      + 
  2.000e-02  3.77e-06 +      +      +a     +      +      +      +      +      + 
  3.000e-02  5.61e-06 +      +      + a    +      +      +      +      +      + 
  4.000e-02  7.42e-06 +      +      + a    +      +      +      +      +      + 
  5.000e-02  9.20e-06 +      +      +  a   +      +      +      +      +      + 
  6.000e-02  1.10e-05 +      +      +  a   +      +      +      +      +      + 
  7.000e-02  1.27e-05 +      +      +   a  +      +      +      +      +      + 
  8.000e-02  1.44e-05 +      +      +   a  +      +      +      +      +      + 
  9.000e-02  1.60e-05 +      +      +   a  +      +      +      +      +      + 
  1.000e-01  1.77e-05-+------+------+----a-+------+------+------+------+------+-
  1.100e-01  1.93e-05 +      +      +    a +      +      +      +      +      + 
  1.200e-01  2.09e-05 +      +      +     a+      +      +      +      +      + 
  1.300e-01  2.24e-05 +      +      +     a+      +      +      +      +      + 
  1.400e-01  2.40e-05 +      +      +      a      +      +      +      +      + 
  1.500e-01  2.55e-05 +      +      +      a      +      +      +      +      + 
  1.600e-01  2.69e-05 +      +      +      +a     +      +      +      +      + 
  1.700e-01  2.84e-05 +      +      +      +a     +      +      +      +      + 
  1.800e-01  2.98e-05 +      +      +      +a     +      +      +      +      + 
  1.900e-01  3.12e-05 +      +      +      + a    +      +      +      +      + 
  2.000e-01  3.26e-05-+------+------+------+-a----+------+------+------+------+-
  2.100e-01  3.39e-05 +      +      +      + a    +      +      +      +      + 
  2.200e-01  3.52e-05 +      +      +      +  a   +      +      +      +      + 
  2.300e-01  3.65e-05 +      +      +      +  a   +      +      +      +      + 
  2.400e-01  3.77e-05 +      +      +      +   a  +      +      +      +      + 
  2.500e-01  3.90e-05 +      +      +      +   a  +      +      +      +      + 
  2.600e-01  4.02e-05 +      +      +      +   a  +      +      +      +      + 
  2.700e-01  4.14e-05 +      +      +      +    a +      +      +      +      + 
  2.800e-01  4.25e-05 +      +      +      +    a +      +      +      +      + 
  2.900e-01  4.36e-05 +      +      +      +    a +      +      +      +      + 
  3.000e-01  4.47e-05-+------+------+------+-----a+------+------+------+------+-
  3.100e-01  4.58e-05 +      +      +      +     a+      +      +      +      + 
  3.200e-01  4.68e-05 +      +      +      +     a+      +      +      +      + 
  3.300e-01  4.78e-05 +      +      +      +     a+      +      +      +      + 
  3.400e-01  4.88e-05 +      +      +      +      a      +      +      +      + 
  3.500e-01  4.98e-05 +      +      +      +      a      +      +      +      + 
  3.600e-01  5.07e-05 +      +      +      +      a      +      +      +      + 
  3.700e-01  5.16e-05 +      +      +      +      a      +      +      +      + 
  3.800e-01  5.25e-05 +      +      +      +      +a     +      +      +      + 
  3.900e-01  5.34e-05 +      +      +      +      +a     +      +      +      + 
  4.000e-01  5.42e-05-+------+------+------+------+a-----+------+------+------+-
  4.100e-01  5.50e-05 +      +      +      +      +a     +      +      +      + 
  4.200e-01  5.58e-05 +      +      +      +      + a    +      +      +      + 
  4.300e-01  5.65e-05 +      +      +      +      + a    +      +      +      + 
  4.400e-01  5.73e-05 +      +      +      +      + a    +      +      +      + 
  4.500e-01  5.79e-05 +      +      +      +      + a    +      +      +      + 
  4.600e-01  5.86e-05 +      +      +      +      + a    +      +      +      + 
  4.700e-01  5.93e-05 +      +      +      +      +  a   +      +      +      + 
  4.800e-01  5.99e-05 +      +      +      +      +  a   +      +      +      + 
  4.900e-01  6.05e-05 +      +      +      +      +  a   +      +      +      + 
  5.000e-01  6.10e-05-+------+------+------+------+--a---+------+------+------+-
  5.100e-01  6.15e-05 +      +      +      +      +  a   +      +      +      + 
  5.200e-01  6.20e-05 +      +      +      +      +  a   +      +      +      + 
  5.300e-01  6.25e-05 +      +      +      +      +   a  +      +      +      + 
  5.400e-01  6.30e-05 +      +      +      +      +   a  +      +      +      + 
  5.500e-01  6.34e-05 +      +      +      +      +   a  +      +      +      + 
  5.600e-01  6.38e-05 +      +      +      +      +   a  +      +      +      + 
  5.700e-01  6.42e-05 +      +      +      +      +   a  +      +      +      + 
  5.800e-01  6.46e-05 +      +      +      +      +   a  +      +      +      + 
  5.900e-01  6.50e-05 +      +      +      +      +   a  +      +      +      + 
  6.000e-01  6.53e-05-+------+------+------+------+---a--+------+------+------+-
  6.100e-01  6.56e-05 +      +      +      +      +   a  +      +      +      + 
  6.200e-01  6.59e-05 +      +      +      +      +   a  +      +      +      + 
  6.300e-01  6.62e-05 +      +      +      +      +    a +      +      +      + 
  6.400e-01  6.65e-05 +      +      +      +      +    a +      +      +      + 
  6.500e-01  6.68e-05 +      +      +      +      +    a +      +      +      + 
  6.600e-01  6.71e-05 +      +      +      +      +    a +      +      +      + 
  6.700e-01  6.73e-05 +      +      +      +      +    a +      +      +      + 
  6.800e-01  6.76e-05 +      +      +      +      +    a +      +      +      + 
  6.900e-01  6.78e-05 +      +      +      +      +    a +      +      +      + 
  7.000e-01  6.81e-05-+------+------+------+------+----a-+------+------+------+-
  7.100e-01  6.83e-05 +      +      +      +      +    a +      +      +      + 
  7.200e-01  6.86e-05 +      +      +      +      +    a +      +      +      + 
  7.300e-01  6.88e-05 +      +      +      +      +    a +      +      +      + 
  7.400e-01  6.90e-05 +      +      +      +      +    a +      +      +      + 
  7.500e-01  6.92e-05 +      +      +      +      +    a +      +      +      + 
  7.600e-01  6.95e-05 +      +      +      +      +    a +      +      +      + 
  7.700e-01  6.97e-05 +      +      +      +      +     a+      +      +      + 
  7.800e-01  6.99e-05 +      +      +      +      +     a+      +      +      + 
  7.900e-01  7.01e-05 +      +      +      +      +     a+      +      +      + 
  8.000e-01  7.03e-05-+------+------+------+------+-----a+------+------+------+-
  8.100e-01  7.05e-05 +      +      +      +      +     a+      +      +      + 
  8.200e-01  7.07e-05 +      +      +      +      +     a+      +      +      + 
  8.300e-01  7.09e-05 +      +      +      +      +     a+      +      +      + 
  8.400e-01  7.11e-05 +      +      +      +      +     a+      +      +      + 
  8.500e-01  7.13e-05 +      +      +      +      +     a+      +      +      + 
  8.600e-01  7.15e-05 +      +      +      +      +     a+      +      +      + 
  8.700e-01  7.17e-05 +      +      +      +      +     a+      +      +      + 
  8.800e-01  7.19e-05 +      +      +      +      +     a+      +      +      + 
  8.900e-01  7.21e-05 +      +      +      +      +     a+      +      +      + 
  9.000e-01  7.23e-05-+------+------+------+------+-----a+------+------+------+-
  9.100e-01  7.25e-05 +      +      +      +      +     a+      +      +      + 
  9.200e-01  7.27e-05 +      +      +      +      +     a+      +      +      + 
  9.300e-01  7.29e-05 +      +      +      +      +     a+      +      +      + 
  9.400e-01  7.31e-05 +      +      +      +      +     a+      +      +      + 
  9.500e-01  7.33e-05 +      +      +      +      +      a      +      +      + 
  9.600e-01  7.35e-05 +      +      +      +      +      a      +      +      + 
  9.700e-01  7.37e-05 +      +      +      +      +      a      +      +      + 
  9.800e-01  7.39e-05 +      +      +      +      +      a      +      +      + 
  9.900e-01  7.41e-05 +      +      +      +      +      a      +      +      + 
                      +             +             +             +             + 

b


a


      volt       i(m1))
 (a       )    -1.000e-04    -5.000e-05     0.000e+00     5.000e-05    1.000e-04
                      +             +             +             +             + 
  0.000e+00 -7.94e-05-+-----a+------+------+------+------+------+------+------+-
  1.000e-02 -7.91e-05 +     a+      +      +      +      +      +      +      + 
  2.000e-02 -7.89e-05 +     a+      +      +      +      +      +      +      + 
  3.000e-02 -7.86e-05 +     a+      +      +      +      +      +      +      + 
  4.000e-02 -7.84e-05 +     a+      +      +      +      +      +      +      + 
  5.000e-02 -7.81e-05 +     a+      +      +      +      +      +      +      + 
  6.000e-02 -7.79e-05 +     a+      +      +      +      +      +      +      + 
  7.000e-02 -7.76e-05 +     a+      +      +      +      +      +      +      + 
  8.000e-02 -7.74e-05 +     a+      +      +      +      +      +      +      + 
  9.000e-02 -7.71e-05 +     a+      +      +      +      +      +      +      + 
[...]
  4.000e-02  1.40e-05 +      +      +   a  +      +      +      +      +      + 
  5.000e-02  1.73e-05 +      +      +    a +      +      +      +      +      + 
  6.000e-02  2.06e-05 +      +      +     a+      +      +      +      +      + 
  7.000e-02  2.38e-05 +      +      +      a      +      +      +      +      + 
  8.000e-02  2.69e-05 +      +      +      +a     +      +      +      +      + 
  9.000e-02  3.00e-05 +      +      +      +a     +      +      +      +      + 
  1.000e-01  3.30e-05-+------+------+------+-a----+------+------+------+------+-
  1.100e-01  3.60e-05 +      +      +      +  a   +      +      +      +      + 
  1.200e-01  3.88e-05 +      +      +      +   a  +      +      +      +      + 
  1.300e-01  4.17e-05 +      +      +      +    a +      +      +      +      + 
  1.400e-01  4.45e-05 +      +      +      +    a +      +      +      +      + 
  1.500e-01  4.72e-05 +      +      +      +     a+      +      +      +      + 
  1.600e-01  4.98e-05 +      +      +      +      a      +      +      +      + 
  1.700e-01  5.24e-05 +      +      +      +      +a     +      +      +      + 
  1.800e-01  5.49e-05 +      +      +      +      +a     +      +      +      + 
  1.900e-01  5.74e-05 +      +      +      +      + a    +      +      +      + 
  2.000e-01  5.98e-05-+------+------+------+------+--a---+------+------+------+-
  2.100e-01  6.22e-05 +      +      +      +      +  a   +      +      +      + 
  2.200e-01  6.45e-05 +      +      +      +      +   a  +      +      +      + 
  2.300e-01  6.67e-05 +      +      +      +      +    a +      +      +      + 
  2.400e-01  6.89e-05 +      +      +      +      +    a +      +      +      + 
  2.500e-01  7.10e-05 +      +      +      +      +     a+      +      +      + 
  2.600e-01  7.31e-05 +      +      +      +      +     a+      +      +      + 
  2.700e-01  7.51e-05 +      +      +      +      +      a      +      +      + 
  2.800e-01  7.71e-05 +      +      +      +      +      +a     +      +      + 
  2.900e-01  7.90e-05 +      +      +      +      +      +a     +      +      + 
  3.000e-01  8.08e-05-+------+------+------+------+------+-a----+------+------+-
  3.100e-01  8.26e-05 +      +      +      +      +      + a    +      +      + 
  3.200e-01  8.43e-05 +      +      +      +      +      +  a   +      +      + 
  3.300e-01  8.59e-05 +      +      +      +      +      +  a   +      +      + 
  3.400e-01  8.75e-05 +      +      +      +      +      +   a  +      +      + 
  3.500e-01  8.91e-05 +      +      +      +      +      +   a  +      +      + 
  3.600e-01  9.05e-05 +      +      +      +      +      +   a  +      +      + 
  3.700e-01  9.20e-05 +      +      +      +      +      +    a +      +      + 
  3.800e-01  9.33e-05 +      +      +      +      +      +    a +      +      + 
  3.900e-01  9.46e-05 +      +      +      +      +      +    a +      +      + 
  4.000e-01  9.58e-05-+------+------+------+------+------+-----a+------+------+-
  4.100e-01  9.70e-05 +      +      +      +      +      +     a+      +      + 
  4.200e-01  9.81e-05 +      +      +      +      +      +     a+      +      + 
  4.300e-01  9.91e-05 +      +      +      +      +      +      a      +      + 
  4.400e-01  1.00e-04 +      +      +      +      +      +      a      +      + 
  4.500e-01  1.01e-04 +      +      +      +      +      +      a      +      + 
  4.600e-01  1.02e-04 +      +      +      +      +      +      +a     +      + 
  4.700e-01  1.03e-04 +      +      +      +      +      +      +a     +      + 
  4.800e-01  1.03e-04 +      +      +      +      +      +      +a     +      + 
  4.900e-01  1.04e-04 +      +      +      +      +      +      +a     +      + 
  5.000e-01  1.05e-04-+------+------+------+------+------+------+a-----+------+-
  5.100e-01  1.05e-04 +      +      +      +      +      +      +a     +      + 
  5.200e-01  1.06e-04 +      +      +      +      +      +      + a    +      + 
  5.300e-01  1.06e-04 +      +      +      +      +      +      + a    +      + 
  5.400e-01  1.07e-04 +      +      +      +      +      +      + a    +      + 
  5.500e-01  1.07e-04 +      +      +      +      +      +      + a    +      + 
  5.600e-01  1.08e-04 +      +      +      +      +      +      + a    +      + 
  5.700e-01  1.08e-04 +      +      +      +      +      +      + a    +      + 
  5.800e-01  1.09e-04 +      +      +      +      +      +      + a    +      + 
  5.900e-01  1.09e-04 +      +      +      +      +      +      +  a   +      + 
  6.000e-01  1.09e-04-+------+------+------+------+------+------+--a---+------+-
  6.100e-01  1.10e-04 +      +      +      +      +      +      +  a   +      + 
  6.200e-01  1.10e-04 +      +      +      +      +      +      +  a   +      + 
  6.300e-01  1.10e-04 +      +      +      +      +      +      +  a   +      + 
  6.400e-01  1.11e-04 +      +      +      +      +      +      +  a   +      + 
  6.500e-01  1.11e-04 +      +      +      +      +      +      +  a   +      + 
  6.600e-01  1.11e-04 +      +      +      +      +      +      +  a   +      + 
  6.700e-01  1.12e-04 +      +      +      +      +      +      +  a   +      + 
  6.800e-01  1.12e-04 +      +      +      +      +      +      +  a   +      + 
  6.900e-01  1.12e-04 +      +      +      +      +      +      +  a   +      + 
  7.000e-01  1.12e-04-+------+------+------+------+------+------+--a---+------+-
  7.100e-01  1.13e-04 +      +      +      +      +      +      +   a  +      + 
  7.200e-01  1.13e-04 +      +      +      +      +      +      +   a  +      + 
  7.300e-01  1.13e-04 +      +      +      +      +      +      +   a  +      + 
  7.400e-01  1.14e-04 +      +      +      +      +      +      +   a  +      + 
  7.500e-01  1.14e-04 +      +      +      +      +      +      +   a  +      + 
  7.600e-01  1.14e-04 +      +      +      +      +      +      +   a  +      + 
  7.700e-01  1.14e-04 +      +      +      +      +      +      +   a  +      + 
  7.800e-01  1.15e-04 +      +      +      +      +      +      +   a  +      + 
  7.900e-01  1.15e-04 +      +      +      +      +      +      +   a  +      + 
  8.000e-01  1.15e-04-+------+------+------+------+------+------+---a--+------+-
  8.100e-01  1.15e-04 +      +      +      +      +      +      +   a  +      + 
  8.200e-01  1.15e-04 +      +      +      +      +      +      +   a  +      + 
  8.300e-01  1.16e-04 +      +      +      +      +      +      +   a  +      + 
  8.400e-01  1.16e-04 +      +      +      +      +      +      +   a  +      + 
  8.500e-01  1.16e-04 +      +      +      +      +      +      +    a +      + 
  8.600e-01  1.16e-04 +      +      +      +      +      +      +    a +      + 
  8.700e-01  1.17e-04 +      +      +      +      +      +      +    a +      + 
  8.800e-01  1.17e-04 +      +      +      +      +      +      +    a +      + 
  8.900e-01  1.17e-04 +      +      +      +      +      +      +    a +      + 
  9.000e-01  1.17e-04-+------+------+------+------+------+------+----a-+------+-
  9.100e-01  1.17e-04 +      +      +      +      +      +      +    a +      + 
  9.200e-01  1.18e-04 +      +      +      +      +      +      +    a +      + 
  9.300e-01  1.18e-04 +      +      +      +      +      +      +    a +      + 
  9.400e-01  1.18e-04 +      +      +      +      +      +      +    a +      + 
  9.500e-01  1.18e-04 +      +      +      +      +      +      +    a +      + 
  9.600e-01  1.19e-04 +      +      +      +      +      +      +    a +      + 
  9.700e-01  1.19e-04 +      +      +      +      +      +      +    a +      + 
  9.800e-01  1.19e-04 +      +      +      +      +      +      +    a +      + 
  9.900e-01  1.19e-04 +      +      +      +      +      +      +    a +      + 
  1.000e+00  1.19e-04-+------+------+------+------+------+------+----a-+------+-
  1.010e+00  1.20e-04 +      +      +      +      +      +      +     a+      + 
  1.020e+00  1.20e-04 +      +      +      +      +      +      +     a+      + 
  1.030e+00  1.20e-04 +      +      +      +      +      +      +     a+      + 
  1.040e+00  1.20e-04 +      +      +      +      +      +      +     a+      + 
  1.050e+00  1.21e-04 +      +      +      +      +      +      +     a+      + 
  1.060e+00  1.21e-04 +      +      +      +      +      +      +     a+      + 
  1.070e+00  1.21e-04 +      +      +      +      +      +      +     a+      + 
  1.080e+00  1.21e-04 +      +      +      +      +      +      +     a+      + 
  1.090e+00  1.21e-04 +      +      +      +      +      +      +     a+      + 
  1.100e+00  1.22e-04-+------+------+------+------+------+------+-----a+------+-
                      +             +             +             +             + 

b


a


      volt       i(m1))
 (a       )    -2.000e-04    -1.000e-04     0.000e+00     1.000e-04    2.000e-04
                      +             +             +             +             + 
  0.000e+00 -1.64e-04-+----a-+------+------+------+------+------+------+------+-
  1.000e-02 -1.64e-04 +    a +      +      +      +      +      +      +      + 
  2.000e-02 -1.63e-04 +    a +      +      +      +      +      +      +      + 
  3.000e-02 -1.63e-04 +    a +      +      +      +      +      +      +      + 
  4.000e-02 -1.63e-04 +    a +      +      +      +      +      +      +      + 
  5.000e-02 -1.62e-04 +    a +      +      +      +      +      +      +      + 
  6.000e-02 -1.62e-04 +    a +      +      +      +      +      +      +      + 
  7.000e-02 -1.62e-04 +    a +      +      +      +      +      +      +      + 
  8.000e-02 -1.61e-04 +    a +      +      +      +      +      +      +      + 
  9.000e-02 -1.61e-04 +    a +      +      +      +      +      +      +      + 
  1.000e-01 -1.61e-04-+-----a+------+------+------+------+------+------+------+-
  1.100e-01 -1.60e-04 +     a+      +      +      +      +      +      +      + 
  1.200e-01 -1.60e-04 +     a+      +      +      +      +      +      +      + 
  1.300e-01 -1.60e-04 +     a+      +      +      +      +      +      +      + 
  1.400e-01 -1.59e-04 +     a+      +      +      +      +      +      +      + 
  1.500e-01 -1.59e-04 +     a+      +      +      +      +      +      +      + 
  1.600e-01 -1.58e-04 +     a+      +      +      +      +      +      +      + 
  1.700e-01 -1.58e-04 +     a+      +      +      +      +      +      +      + 
  1.800e-01 -1.58e-04 +     a+      +      +      +      +      +      +      + 
  1.900e-01 -1.57e-04 +     a+      +      +      +      +      +      +      + 
  2.000e-01 -1.57e-04-+-----a+------+------+------+------+------+------+------+-
  2.100e-01 -1.57e-04 +     a+      +      +      +      +      +      +      + 
  2.200e-01 -1.56e-04 +     a+      +      +      +      +      +      +      + 
  2.300e-01 -1.56e-04 +     a+      +      +      +      +      +      +      + 
  2.400e-01 -1.56e-04 +     a+      +      +      +      +      +      +      + 
  2.500e-01 -1.55e-04 +     a+      +      +      +      +      +      +      + 
  2.600e-01 -1.55e-04 +     a+      +      +      +      +      +      +      + 
  2.700e-01 -1.54e-04 +     a+      +      +      +      +      +      +      + 
  2.800e-01 -1.54e-04 +     a+      +      +      +      +      +      +      + 
  2.900e-01 -1.54e-04 +     a+      +      +      +      +      +      +      + 
  3.000e-01 -1.53e-04-+------a------+------+------+------+------+------+------+-
  3.100e-01 -1.53e-04 +      a      +      +      +      +      +      +      + 
  3.200e-01 -1.52e-04 +      a      +      +      +      +      +      +      + 
  3.300e-01 -1.52e-04 +      a      +      +      +      +      +      +      + 
  3.400e-01 -1.52e-04 +      a      +      +      +      +      +      +      + 
  3.500e-01 -1.51e-04 +      a      +      +      +      +      +      +      + 
  3.600e-01 -1.51e-04 +      a      +      +      +      +      +      +      + 
  3.700e-01 -1.50e-04 +      a      +      +      +      +      +      +      + 
  3.800e-01 -1.50e-04 +      a      +      +      +      +      +      +      + 
  3.900e-01 -1.50e-04 +      a      +      +      +      +      +      +      + 
  4.000e-01 -1.49e-04-+------a------+------+------+------+------+------+------+-
  4.100e-01 -1.49e-04 +      a      +      +      +      +      +      +      + 
  4.200e-01 -1.48e-04 +      a      +      +      +      +      +      +      + 
  4.300e-01 -1.48e-04 +      a      +      +      +      +      +      +      + 
  4.400e-01 -1.47e-04 +      a      +      +      +      +      +      +      + 
  4.500e-01 -1.47e-04 +      a      +      +      +      +      +      +      + 
  4.600e-01 -1.46e-04 +      +a     +      +      +      +      +      +      + 
  4.700e-01 -1.46e-04 +      +a     +      +      +      +      +      +      + 
  4.800e-01 -1.45e-04 +      +a     +      +      +      +      +      +      + 
  4.900e-01 -1.45e-04 +      +a     +      +      +      +      +      +      + 
  5.000e-01 -1.44e-04-+------+a-----+------+------+------+------+------+------+-
  5.100e-01 -1.44e-04 +      +a     +      +      +      +      +      +      + 
  5.200e-01 -1.43e-04 +      +a     +      +      +      +      +      +      + 
  5.300e-01 -1.42e-04 +      +a     +      +      +      +      +      +      + 
  5.400e-01 -1.42e-04 +      +a     +      +      +      +      +      +      + 
  5.500e-01 -1.41e-04 +      +a     +      +      +      +      +      +      + 
  5.600e-01 -1.41e-04 +      +a     +      +      +      +      +      +      + 
  5.700e-01 -1.40e-04 +      +a     +      +      +      +      +      +      + 
  5.800e-01 -1.39e-04 +      + a    +      +      +      +      +      +      + 
  5.900e-01 -1.38e-04 +      + a    +      +      +      +      +      +      + 
  6.000e-01 -1.38e-04-+------+-a----+------+------+------+------+------+------+-
  6.100e-01 -1.37e-04 +      + a    +      +      +      +      +      +      + 
  6.200e-01 -1.36e-04 +      + a    +      +      +      +      +      +      + 
  6.300e-01 -1.35e-04 +      + a    +      +      +      +      +      +      + 
  6.400e-01 -1.34e-04 +      + a    +      +      +      +      +      +      + 
  6.500e-01 -1.33e-04 +      + a    +      +      +      +      +      +      + 
  6.600e-01 -1.32e-04 +      +  a   +      +      +      +      +      +      + 
  6.700e-01 -1.30e-04 +      +  a   +      +      +      +      +      +      + 
  6.800e-01 -1.29e-04 +      +  a   +      +      +      +      +      +      + 
  6.900e-01 -1.28e-04 +      +  a   +      +      +      +      +      +      + 
  7.000e-01 -1.26e-04-+------+--a---+------+------+------+------+------+------+-
  7.100e-01 -1.25e-04 +      +   a  +      +      +      +      +      +      + 
  7.200e-01 -1.23e-04 +      +   a  +      +      +      +      +      +      + 
  7.300e-01 -1.21e-04 +      +   a  +      +      +      +      +      +      + 
  7.400e-01 -1.20e-04 +      +   a  +      +      +      +      +      +      + 
  7.500e-01 -1.18e-04 +      +    a +      +      +      +      +      +      + 
  7.600e-01 -1.16e-04 +      +    a +      +      +      +      +      +      + 
  7.700e-01 -1.14e-04 +      +    a +      +      +      +      +      +      + 
  7.800e-01 -1.12e-04 +      +    a +      +      +      +      +      +      + 
  7.900e-01 -1.10e-04 +      +     a+      +      +      +      +      +      + 
  8.000e-01 -1.07e-04-+------+-----a+------+------+------+------+------+------+-
  8.100e-01 -1.05e-04 +      +     a+      +      +      +      +      +      + 
  8.200e-01 -1.03e-04 +      +      a      +      +      +      +      +      + 
  8.300e-01 -1.00e-04 +      +      a      +      +      +      +      +      + 
  8.400e-01 -9.77e-05 +      +      a      +      +      +      +      +      + 
  8.500e-01 -9.51e-05 +      +      +a     +      +      +      +      +      + 
  8.600e-01 -9.24e-05 +      +      +a     +      +      +      +      +      + 
  8.700e-01 -8.96e-05 +      +      +a     +      +      +      +      +      + 
  8.800e-01 -8.67e-05 +      +      + a    +      +      +      +      +      + 
  8.900e-01 -8.38e-05 +      +      + a    +      +      +      +      +      + 
  9.000e-01 -8.08e-05-+------+------+--a---+------+------+------+------+------+-
  9.100e-01 -7.76e-05 +      +      +  a   +      +      +      +      +      + 
  9.200e-01 -7.44e-05 +      +      +   a  +      +      +      +      +      + 
  9.300e-01 -7.11e-05 +      +      +   a  +      +      +      +      +      + 
  9.400e-01 -6.77e-05 +      +      +    a +      +      +      +      +      + 
  9.500e-01 -6.43e-05 +      +      +    a +      +      +      +      +      + 
  9.600e-01 -6.07e-05 +      +      +     a+      +      +      +      +      + 
  9.700e-01 -5.70e-05 +      +      +     a+      +      +      +      +      + 
  9.800e-01 -5.33e-05 +      +      +      a      +      +      +      +      + 
  9.900e-01 -4.94e-05 +      +      +      a      +      +      +      +      + 
  1.000e+00 -4.55e-05-+------+------+------+a-----+------+------+------+------+-
  1.010e+00 -4.14e-05 +      +      +      +a     +      +      +      +      + 
  1.020e+00 -3.72e-05 +      +      +      + a    +      +      +      +      + 
  1.030e+00 -3.30e-05 +      +      +      + a    +      +      +      +      + 
  1.040e+00 -2.86e-05 +      +      +      +  a   +      +      +      +      + 
  1.050e+00 -2.41e-05 +      +      +      +   a  +      +      +      +      + 
  1.060e+00 -1.95e-05 +      +      +      +   a  +      +      +      +      + 
  1.070e+00 -1.48e-05 +      +      +      +    a +      +      +      +      + 
  1.080e+00 -1.00e-05 +      +      +      +     a+      +      +      +      + 
  1.090e+00 -5.06e-06 +      +      +      +     a+      +      +      +      + 
  1.100e+00  6.90e-10-+------+------+------+------a------+------+------+------+-
                      +             +             +             +             + 

b


          ***** job concluded
1****** HSPICE -- I-2013.12-SP1 64-BIT (Feb 25 2014) RHEL64 ******              
 ******  
 

  ******  job statistics summary tnom=  25.000 temp=  25.000 *****
  
  
 ******  Machine Information  ******
 CPU:
 model name	: Intel(R) Xeon(R) CPU E5-2690 v2 @ 3.00GHz
 cpu MHz	: 3011.246
  
 OS:
 Linux version 2.6.32-696.1.1.el6.x86_64 (mockbuild@c1bm.rdu2.centos.org) (gcc version 4.4.7 20120313 (Red Hat 4.4.7-18) (GCC) ) #1 SMP Tue Apr 11 17:13:24 UTC 2017


  ******  HSPICE Threads Information  ******

  Command Line Threads Count :     1
  Available CPU Count        :    40
  Actual Threads Count       :     1


  ******  Circuit Statistics  ******
  # nodes       =      13 # elements   =       6
  # resistors   =       0 # capacitors =       0 # inductors   =       0
  # mutual_inds =       0 # vccs       =       0 # vcvs        =       0
  # cccs        =       0 # ccvs       =       0 # volt_srcs   =       4
  # curr_srcs   =       0 # diodes     =       0 # bjts        =       0
  # jfets       =       0 # mosfets    =       2 # U elements  =       0
  # T elements  =       0 # W elements =       0 # B elements  =       0
  # S elements  =       0 # P elements =       0 # va device   =       0
  # vector_srcs =       0 # N elements =       0


  ******  Runtime Statistics (seconds)  ******

  analysis           time    # points   tot. iter  conv.iter
  op point           0.00           1           0
  dc sweep           0.00         111         224
  readin             0.00
  errchk             0.00
  setup              0.00
  output             0.00


           peak memory used        174.30 megabytes
           total cpu time            0.01 seconds
           total elapsed time        0.01 seconds
           job started at     00:49:33 05/17/2020
           job ended   at     00:49:34 05/17/2020


 lic: Release hspice token(s) 
 lic: total license checkout elapse time:        0.96(s)
