$DATA1 SOURCE='HSPICE' VERSION='I-2013.12-SP1 64-BIT'
.TITLE 'tttt'
 tpdf             tpdr             tpd              tcdf              
 tcd              tr               tf               avgpower          
 peakpower        temper           alter#            
  1.172e-11        9.668e-12        1.070e-11        7.794e-12        
  8.731e-12        9.477e-12        6.910e-12        1.470e-07        
  1.382e-04        2.500e+01       2                 
