$DATA1 SOURCE='HSPICE' VERSION='I-2013.12-SP1 64-BIT'
.TITLE 'fsst'
 ivth_nmos        ivth_pmos_temp   ivth_pmos        temper            
 alter#            
  2.320e-01       -2.358e-01        2.358e-01       -4.500e+01        
 56                
