$DATA1 SOURCE='HSPICE' VERSION='I-2013.12-SP1 64-BIT'
.TITLE 'ttfs'
 ivth_nmos        ivth_pmos_temp   ivth_pmos        temper            
 alter#            
  1.788e-01       -2.562e-01        2.562e-01        2.500e+01        
 43                
